$DATA1 SOURCE='HSPICE' VERSION='A-2007.09'
.TITLE '*include model and subckts'
 avg_crt          temper           alter#            
 -8.174e-09         25.0000           1.0000         
