Using: /usr/bin/time -p /usr/cad/meta/rel/hspice/linux/hspice dflipfop.sp
