Using: /usr/bin/time -p /usr/cad/meta/rel/hspice/linux/hspice and2.sp
 ****** HSPICE  --  A-2007.09  32-BIT    (Aug 28 2007) 14:54:14 02/23/2013 linux
  Copyright (C) 2007 Synopsys, Inc. All Rights Reserved.                        
  Unpublished-rights reserved under US copyright laws.
  This program is protected by law and is subject to the 
  terms and conditions of the license agreement found in:
    /usr/cad/meta/rel/hspice/license.txt
  Use of this program is your acceptance to be bound by this 
  license agreement. HSPICE is the trademark of Synopsys, Inc.
  Input File: and2.sp                                                           
 lic:  
 lic: FLEXlm: v8.5b 
 lic: USER:   jy2525               HOSTNAME: vlsi12 
 lic: HOSTID: e091f595b530         PID:      31509 
 lic: Using FLEXlm license file: 
 lic: 27000@bioeeserv.ee.columbia.edu 
 lic: Checkout 1 hspice;  Encryption code: DEA048380846260FC020 
 lic: License/Maintenance for hspice will expire on 14-jun-2013/2011.09 
 lic: 1(in_use)/50(total) FLOATING license(s) on SERVER bioeeserv.ee.columbia.ed
 lic:   
 Init: read install configuration file: /usr/cad/meta/rel/hspice/meta.cfg
 Init: hspice initialization file: /usr/cad/meta/rel/hspice/hspice.ini
 .lib '/tools2/courses/ee6321/share/ibm_pdk/cmrf8sf/reldm/hspice/models/allmodels.inc' tt
 .lib './fixed_corner' tt
 .param  fixcnr = 0
 .lib 'fixed_corner'   tt_nhvt33
 .param
 + dvfbo_nhvt33_fc =   0.0000e+00
 + dcjorsti_nhvt33_fc =   0.0000e+00
 + dcjorgat_nhvt33_fc =   0.0000e+00
 + dvfbl_nhvt33_fc =   0.0000e+00
 + dlov_nhvt33_fc =   0.0000e+00
 + dcjorbot_nhvt33_fc =   0.0000e+00
 + dfol1_nhvt33_fc =   0.0000e+00
 + dtoxo_nhvt33_fc =   0.0000e+00
 + dlap_nhvt33_fc =   0.0000e+00
 + dvfblw_nhvt33_fc =   0.0000e+00
 + duo_nhvt33_fc =   0.0000e+00
 + drsw1_nhvt33_fc =   0.0000e+00
 + dwot_nhvt33_fc =   0.0000e+00
 .endl tt_nhvt33
 .lib 'fixed_corner'   tt_phvt33
 .param
 + dvfbo_phvt33_fc =   0.0000e+00
 + dcjorsti_phvt33_fc =   0.0000e+00
 + dcjorgat_phvt33_fc =   0.0000e+00
 + dvfbl_phvt33_fc =   0.0000e+00
 + dlov_phvt33_fc =   0.0000e+00
 + dcjorbot_phvt33_fc =   0.0000e+00
 + dfol1_phvt33_fc =   0.0000e+00
 + dtoxo_phvt33_fc =   0.0000e+00
 + dlap_phvt33_fc =   0.0000e+00
 + dvfblw_phvt33_fc =   0.0000e+00
 + duo_phvt33_fc =   0.0000e+00
 + drsw1_phvt33_fc =   0.0000e+00
 + dwot_phvt33_fc =   0.0000e+00
 .endl tt_phvt33
 .lib 'fixed_corner'   tt_bsim
 .param 
 + cor_rx_fc     = 0
 + cor_pc_fc     = 0
 + cor_tox_fc    = 0
 + cor_toxd_fc   = 0
 + cor_nfet_fc   = 0
 + cor_pfet_fc   = 0
 + cor_lpnf_fc   = 0
 + cor_lppf_fc   = 0
 + cor_lvnf_fc   = 0
 + cor_lvpf_fc   = 0
 + cor_dgnf_fc   = 0
 + cor_dgpf_fc   = 0
 + cor_nf33_fc   = 0
 + cor_pf33_fc   = 0
 + cor_zvtn_fc   = 0
 + cor_zvtdgn_fc = 0
 .endl  tt_bsim
 .endl  tt
 .lib './skew.file' stats
  
 ***********************************************************************
 * process model switch / user input parameters
 ***********************************************************************
 .param skewfix(nom,best,worst,xsig) = '(xsig>0)*(best-nom)*xsig + (xsig<=0)*(nom-worst)*xsig'
 *
 .param
 +     mc_d1 = agauss(0,1,3)
 +     mc_d2 = agauss(0,1,3)
 +     mc_d3 = agauss(0,1,3)
 +     mc_sw = '(mc_d1 != 0) || (mc_d2 != 0) || (mc_d3 != 0)'
 *
 +     mc_gl_f       = '(mc_global>0)*mc_sw'
 +     mc_fet_mm_f   = '(mc_global<2)*mc_sw'
 +     mc_std        = '(mc_global != 0)'
 *
 +     fet_dop_mm    = 'fet_dop_mis'
 +     fet_geo_mm    = 'fet_geo_mis'
 *
 +     pc_nest_f     = 'pc_nest * fet_geo_mm'
 +     pc_orient_f   = 'pc_orient * fet_geo_mm'
 +     pc_dist_f     = 'pc_dist * fet_geo_mm'
 +     rx_dist_f     = 'rx_dist * fet_geo_mm'
 *
 ***********************************************************************
 * statistical and corner analysis selections
 *     note: corner and monte carlo analyses are mutually exclusive
 * translate corner value to distribution "sigma" ( divide by 3 )
 ***********************************************************************
 .param
 +     cnr_rx   = '(1-mc_gl_f) * (cor_rx_fc + cor_rx*(1-fixcnr))/3'
 +     cnr_pc   = '(1-mc_gl_f) * (cor_pc_fc + cor_pc*(1-fixcnr))/3'
 +     cnr_tox  = '(1-mc_gl_f) * (cor_tox_fc + cor_tox*(1-fixcnr))/3'
 +     cnr_toxd = '(1-mc_gl_f) * (cor_toxd_fc + cor_toxd*(1-fixcnr))/3'
 +     cnr_noin = '(1-mc_gl_f) * cor_noin/3'
 +     cnr_noip = '(1-mc_gl_f) * cor_noip/3'
 +     cnr_res  = '(1-mc_gl_f) * cor_res/3'
 +     cnr_cap  = '(1-mc_gl_f) * cor_cap/3'
 +     cnr_ind  = '(1-mc_gl_f) * cor_ind/3'
 *
 +     cnr_nmos = 'cor_nmos * (1-fixcnr)'
 +     cnr_pmos = 'cor_pmos * (1-fixcnr)'
 *
 +     cnr_n    = '(1-mc_gl_f) * (cor_nfet_fc + cnr_nmos)/3'
 +     cnr_p    = '(1-mc_gl_f) * (cor_pfet_fc + cnr_pmos)/3'
 +     cnr_lpn  = '(1-mc_gl_f) * (cor_lpnf_fc + cnr_nmos)/3'
 +     cnr_lpp  = '(1-mc_gl_f) * (cor_lppf_fc + cnr_pmos)/3'
 +     cnr_lvn  = '(1-mc_gl_f) * (cor_lvnf_fc + cnr_nmos)/3'
 +     cnr_lvp  = '(1-mc_gl_f) * (cor_lvpf_fc + cnr_pmos)/3'
 +     cnr_dgn  = '(1-mc_gl_f) * (cor_dgnf_fc + cnr_nmos)/3'
 +     cnr_dgp  = '(1-mc_gl_f) * (cor_dgpf_fc + cnr_pmos)/3'
 +     cnr_n33  = '(1-mc_gl_f) * (cor_nf33_fc + cnr_nmos)/3'
 +     cnr_p33  = '(1-mc_gl_f) * (cor_pf33_fc + cnr_pmos)/3'
 +     cnr_zn   = '(1-mc_gl_f) * (cor_zvtn_fc + cnr_nmos)/3'
 +     cnr_zdg  = '(1-mc_gl_f) * (cor_zvtdgn_fc + cnr_nmos)/3'
 *
 +     cnr_nhv33 = '(1-mc_gl_f) * (cnr_nmos)/3'
 +     cnr_phv33 = '(1-mc_gl_f) * (cnr_pmos)/3'
 *
 +     npmsxt   = 'waferthk*1.0e-6'       $ convert units for nominal value
 *
 ***********************************************************************
 * aclv / acwv parameters and calculations
 ***********************************************************************
 .param
 +     total_aclv_fet   = 0.0036666e-6    $ aclv l tracking 1 sigma coefficients
 +     total_aclv_dgfet = 0.0053333e-6
 +     total_acwv_fet   = 0.0156666e-6    $ acwv w tracking 1 sigma coefficients
 +     total_acwv_dgfet = 0.0140e-6
 *
 +     aclv_fet_ni      = '0.0053e-6/(3*total_aclv_fet)'
 +     aclv_fet_or      = '0.0045e-6/(3*total_aclv_fet)'
 +     aclv_fet_dist    = '0.006874e-6/(3*total_aclv_fet)'
 +     aclv_fet_ran     = '0.0050e-6/(3*total_aclv_fet)'
 *
 +     aclv_dgfet_ni    = '0.007709e-6/(3*total_aclv_dgfet)'
 +     aclv_dgfet_or    = '0.006545e-6/(3*total_aclv_dgfet)'
 +     aclv_dgfet_dist  = '0.009999e-6/(3*total_aclv_dgfet)'
 +     aclv_dgfet_ran   = '0.007273e-6/(3*total_aclv_dgfet)'
 *
 *  calculate the rss factor
 +     aclv_factor_1    = '(pow(aclv_fet_ni,2)*(pc_nest_f==1))'
 +     aclv_factor_2    = '(pow(aclv_fet_or,2)*(pc_orient_f==1))'
 +     aclv_factor_3    = '(pow(aclv_fet_dist,2)*(pc_dist_f==1))'
 +     aclv_factor_4    = '(pow(aclv_fet_ran,2))'
 +     aclv_factor_5    = 'sqrt(aclv_factor_1 + aclv_factor_2 + aclv_factor_3 + aclv_factor_4)'
 +     aclv_factor_6    = '(aclv_fet_ni)*(pc_nest_f==1)'
 +     aclv_factor_7    = '(aclv_fet_or)*(pc_orient_f==1)'
 +     aclv_factor_8    = '(aclv_fet_dist)*(pc_dist_f==1)'
 +     aclv_factor      = 'aclv_factor_5/(aclv_factor_6+aclv_factor_7+aclv_factor_8+aclv_fet_ran)'
 *
 +     aclv_dgfactor_1  = '(pow(aclv_dgfet_ni,2)*(pc_nest_f==1))'
 +     aclv_dgfactor_2  = '(pow(aclv_dgfet_or,2)*(pc_orient_f==1))'
 +     aclv_dgfactor_3  = '(pow(aclv_dgfet_dist,2)*(pc_dist_f==1))'
 +     aclv_dgfactor_4  = '(pow(aclv_dgfet_ran,2))'
 +     aclv_dgfactor_5  = 'sqrt(aclv_dgfactor_1 + aclv_dgfactor_2 + aclv_dgfactor_3 + aclv_dgfactor_4)'
 +     aclv_dgfactor_6  = '(aclv_dgfet_ni)*(pc_nest_f==1)'
 +     aclv_dgfactor_7  = '(aclv_dgfet_or)*(pc_orient_f==1)'
 +     aclv_dgfactor_8  = '(aclv_dgfet_dist)*(pc_dist_f==1)'
 +     aclv_dgfactor    = 'aclv_dgfactor_5/(aclv_dgfactor_6+aclv_dgfactor_7+aclv_dgfactor_8+aclv_dgfet_ran)'
 *
 *
 +     acwv_fet_dist    = '0.01652e-6/(3*total_acwv_fet)'
 +     acwv_fet_ran     = '0.0440e-6/(3*total_acwv_fet)'
 +     acwv_dgfet_dist  = '0.02322e-6/(3*total_acwv_dgfet)'
 +     acwv_dgfet_ran   = '0.0350e-6/(3*total_acwv_dgfet)'
 *
 *  calculate the rss factor
 +     acwv_factor_1    = 'sqrt((pow(acwv_fet_dist,2)*(rx_dist_f==1))+(pow(acwv_fet_ran,2)))'
 +     acwv_factor_2    = '((acwv_fet_dist)*(rx_dist_f==1))+ acwv_fet_ran'
 +     acwv_factor      = 'acwv_factor_1/acwv_factor_2'
 *
 +     acwv_dgfactor_1  = 'sqrt((pow(acwv_dgfet_dist,2)*(rx_dist_f==1))+(pow(acwv_dgfet_ran,2)))'
 +     acwv_dgfactor_2  = '((acwv_dgfet_dist)*(rx_dist_f==1))+ acwv_dgfet_ran'
 +     acwv_dgfactor    = 'acwv_dgfactor_1/acwv_dgfactor_2'
 *
 +     aclv_nest_ags    = agauss(0,1,3)
 +     aclv_nest        = '(aclv_nest_ags*mc_fet_mm_f) + (1-mc_fet_mm_f)'
 +     aclv_iso_ags     = agauss(0,1,3)
 +     aclv_iso         = '(aclv_iso_ags*mc_fet_mm_f) + (1-mc_fet_mm_f)'
 +     aclv_v_ags       = agauss(0,1,3)
 +     aclv_v           = '(aclv_v_ags*mc_fet_mm_f) + (1-mc_fet_mm_f)'
 +     aclv_h_ags       = agauss(0,1,3)
 +     aclv_h           = '(aclv_h_ags*mc_fet_mm_f) + (1-mc_fet_mm_f)'
 +     aclv_out_ags     = agauss(0,1,3)
 +     aclv_out         = '(aclv_out_ags*mc_fet_mm_f) + (1-mc_fet_mm_f)'
 +     aclv_in_ags      = agauss(0,1,3)
 +     aclv_in          = '(aclv_in_ags*mc_fet_mm_f) + (1-mc_fet_mm_f)'
 *
 +     fet_aclv_nest    = '((pc_nest_f==1)*aclv_nest)+((pc_nest_f==2)*(pc_nest_add/(6*total_aclv_fet*aclv_fet_ni)))'
 +     fet_aclv_iso     = '((pc_nest_f==1)*aclv_iso)+((pc_nest_f==2)*(-pc_nest_add/(6*total_aclv_fet*aclv_fet_ni)))'
 *
 +     fet_aclv_v       = '((pc_orient_f==1)*aclv_v)+((pc_orient_f==2)*(pc_orient_add/(6*total_aclv_fet*aclv_fet_or)))'
 +     fet_aclv_h       = '((pc_orient_f==1)*aclv_h)+((pc_orient_f==2)*(-pc_orient_add/(6*total_aclv_fet*aclv_fet_or)))'
 *
 +     fet_aclv_out     = '((pc_dist_f==1)*aclv_out)+((pc_dist_f==2)*(pc_dist_add/(6*total_aclv_fet*aclv_fet_dist)))'
 +     fet_aclv_in      = '((pc_dist_f==1)*aclv_in)+((pc_dist_f==2)*(-pc_dist_add/(6*total_aclv_fet*aclv_fet_dist)))'
 *
 +     dgfet_aclv_nest  = '((pc_nest_f==1)*aclv_nest)+((pc_nest_f==2)*(pc_nest_add/(6*total_aclv_dgfet*aclv_dgfet_ni)))'
 +     dgfet_aclv_iso   = '((pc_nest_f==1)*aclv_iso)+((pc_nest_f==2)*(-pc_nest_add/(6*total_aclv_dgfet*aclv_dgfet_ni)))'
 *
 +     dgfet_aclv_v     = '((pc_orient_f==1)*aclv_v)+((pc_orient_f==2)*(pc_orient_add/(6*total_aclv_dgfet*aclv_dgfet_or)))'
 +     dgfet_aclv_h     = '((pc_orient_f==1)*aclv_h)+((pc_orient_f==2)*(-pc_orient_add/(6*total_aclv_dgfet*aclv_dgfet_or)))'
 *
 +     dgfet_aclv_out   = '((pc_dist_f==1)*aclv_out)+((pc_dist_f==2)*(pc_dist_add/(6*total_aclv_dgfet*aclv_dgfet_dist)))'
 +     dgfet_aclv_in    = '((pc_dist_f==1)*aclv_in)+((pc_dist_f==2)*(-pc_dist_add/(6*total_aclv_dgfet*aclv_dgfet_dist)))'
 *
 +     acwv_out_ags     = agauss(0,1,3)
 +     acwv_out         = '(acwv_out_ags*mc_fet_mm_f) + (mc_fet_mm_f-1)'
 +     acwv_in_ags      = agauss(0,1,3)
 +     acwv_in          = '(acwv_in_ags*mc_fet_mm_f) + (mc_fet_mm_f-1)'
 *
 +     fet_acwv_out     = '((rx_dist==1)*acwv_out)+((rx_dist==2)*(rx_dist_add/(6*total_acwv_fet*acwv_fet_dist)))'
 +     fet_acwv_in      = '((rx_dist==1)*acwv_in)+((rx_dist==2)*(-rx_dist_add/(6*total_acwv_fet*acwv_fet_dist)))'
 *
 +     dgfet_acwv_out   = '((rx_dist==1)*acwv_out)+((rx_dist==2)*(rx_dist_add/(6*total_acwv_dgfet*acwv_dgfet_dist)))'
 +     dgfet_acwv_in    = '((rx_dist==1)*acwv_in)+((rx_dist==2)*(-rx_dist_add/(6*total_acwv_dgfet*acwv_dgfet_dist)))'
 *
 ***********************************************************************
 * define correlation matrix: mosfet device types vs. process effects
 ***********************************************************************
 .param
 +   xnlmtx     = agauss(0,mc_std,3)            $ delta l distributions
 +   dnlmtx     = xnlmtx
 +   xplmtx     = agauss(0,mc_std,3)
 +   dplmtx     = xplmtx
 +   xlpnlmtx   = agauss(0,mc_std,3)
 +   dlpnlmtx   = xlpnlmtx
 +   xlpplmtx   = agauss(0,mc_std,3)
 +   dlpplmtx   = xlpplmtx
 +   xlvnlmtx   = agauss(0,mc_std,3)
 +   dlvnlmtx   = xlvnlmtx
 +   xlvplmtx   = agauss(0,mc_std,3)
 +   dlvplmtx   = xlvplmtx
 +   xdgnlmtx   = agauss(0,mc_std,3)
 +   ddgnlmtx   = xdgnlmtx
 +   xdgplmtx   = agauss(0,mc_std,3)
 +   ddgplmtx   = xdgplmtx
 +   xn33lmtx   = agauss(0,mc_std,3)
 +   dn33lmtx   = xn33lmtx
 +   xp33lmtx   = agauss(0,mc_std,3)
 +   dp33lmtx   = xp33lmtx
 +   xnhv33lmtx = agauss(0,mc_std,3)
 +   dnhv33lmtx = xnhv33lmtx
 +   xphv33lmtx = agauss(0,mc_std,3)
 +   dphv33lmtx = xphv33lmtx
 +   xznlmtx    = agauss(0,mc_std,3)
 +   dznlmtx    = xznlmtx
 +   xzdglmtx   = agauss(0,mc_std,3)
 +   dzdglmtx   = xzdglmtx
 *
 +   lmtx_n     = '0.7545*dnlmtx + 0.6157*dplmtx + 0.2273*dlvnlmtx'
 +   lmtx_p     = '0.7545*dnlmtx - 0.6157*dplmtx + 0.2273*dlvplmtx'
 +   lmtx_lpn   = '0.7545*dnlmtx + 0.6157*dplmtx - 0.2273*dlpnlmtx'
 +   lmtx_lpp   = '0.7545*dnlmtx - 0.6157*dplmtx - 0.2273*dlpplmtx'
 +   lmtx_lvn   = '0.7545*dnlmtx + 0.6157*dplmtx - 0.2273*dlvnlmtx'
 +   lmtx_lvp   = '0.7545*dnlmtx - 0.6157*dplmtx - 0.2273*dlvplmtx'
 +   lmtx_dgn   = '0.7545*dnlmtx + 0.6157*dplmtx - 0.2273*ddgnlmtx'
 +   lmtx_dgp   = '0.7545*dnlmtx - 0.6157*dplmtx - 0.2273*ddgplmtx'
 +   lmtx_n33   = '0.7545*dnlmtx + 0.6157*dplmtx - 0.2273*dn33lmtx'
 +   lmtx_p33   = '0.7545*dnlmtx - 0.6157*dplmtx - 0.2273*dp33lmtx'
 +   lmtx_nhv33 = '0.7545*dnlmtx + 0.6157*dplmtx - 0.2273*dnhv33lmtx'
 +   lmtx_phv33 = '0.7545*dnlmtx - 0.6157*dplmtx - 0.2273*dphv33lmtx'
 +   lmtx_zn    = '0.7545*dnlmtx + 0.6157*dplmtx - 0.2273*dznlmtx'
 +   lmtx_zdg   = '0.7545*dnlmtx - 0.6157*dplmtx - 0.2273*dzdglmtx'
 *
 +   xnvth0     = agauss(0,mc_std,3)            $ vth0 distributions
 +   dnvth0     = xnvth0
 +   xpvth0     = agauss(0,mc_std,3)
 +   dpvth0     = xpvth0
 +   xlpnvth0   = agauss(0,mc_std,3)
 +   dlpnvth0   = xlpnvth0
 +   xlppvth0   = agauss(0,mc_std,3)
 +   dlppvth0   = xlppvth0
 +   xlvnvth0   = agauss(0,mc_std,3)
 +   dlvnvth0   = xlvnvth0
 +   xlvpvth0   = agauss(0,mc_std,3)
 +   dlvpvth0   = xlvpvth0
 +   xdgnvth0   = agauss(0,mc_std,3)
 +   ddgnvth0   = xdgnvth0
 +   xdgpvth0   = agauss(0,mc_std,3)
 +   ddgpvth0   = xdgpvth0
 +   xn33vth0   = agauss(0,mc_std,3)
 +   dn33vth0   = xn33vth0
 +   xp33vth0   = agauss(0,mc_std,3)
 +   dp33vth0   = xp33vth0
 +   xnhv33vth0 = agauss(0,mc_std,3)
 +   dnhv33vth0 = xnhv33vth0
 +   xphv33vth0 = agauss(0,mc_std,3)
 +   dphv33vth0 = xphv33vth0
 +   xznvth0    = agauss(0,mc_std,3)
 +   dznvth0    = xznvth0
 +   xzdgvth0   = agauss(0,mc_std,3)
 +   dzdgvth0   = xzdgvth0
 *
 +   vmtx_n   = '0.984*dnvth0 + 0.178*dlvnvth0'
 +   vmtx_p   = '0.984*dpvth0 + 0.178*dlvpvth0'
 +   vmtx_lvn = '0.984*dnvth0 - 0.178*dlvnvth0'
 +   vmtx_lvp = '0.984*dpvth0 - 0.178*dlvpvth0'
 *
 +   xnwint     = agauss(0,mc_std,3)            $ delta w distributions
 +   dnwint     = xnwint
 +   xpwint     = agauss(0,mc_std,3)
 +   dpwint     = xpwint
 +   xlpnwint   = agauss(0,mc_std,3)
 +   dlpnwint   = xlpnwint
 +   xlppwint   = agauss(0,mc_std,3)
 +   dlppwint   = xlppwint
 +   xlvnwint   = agauss(0,mc_std,3)
 +   dlvnwint   = xlvnwint
 +   xlvpwint   = agauss(0,mc_std,3)
 +   dlvpwint   = xlvpwint
 +   xdgnwint   = agauss(0,mc_std,3)
 +   ddgnwint   = xdgnwint
 +   xdgpwint   = agauss(0,mc_std,3)
 +   ddgpwint   = xdgpwint
 +   xn33wint   = agauss(0,mc_std,3)
 +   dn33wint   = xn33wint
 +   xp33wint   = agauss(0,mc_std,3)
 +   dp33wint   = xp33wint
 +   xnhv33wint = agauss(0,mc_std,3)
 +   dnhv33wint = xnhv33wint
 +   xphv33wint = agauss(0,mc_std,3)
 +   dphv33wint = xphv33wint
 +   xznwint    = agauss(0,mc_std,3)
 +   dznwint    = xznwint
 +   xzdgwint   = agauss(0,mc_std,3)
 +   dzdgwint   = xzdgwint
 *
 ***********************************************************************
 * define nwell proximity parameters
 ***********************************************************************
 .param
 +   band1  = 0.15u                           $ [meter]
 +   band2  = 0.325u
 +   band3  = 0.375u
 +   band4  = 0.425u
 +   band5  = 0.475u
 +   band6  = 0.55u
 +   band7  = 0.70u
 +   band8  = 0.90u
 +   band9  = 1.20u
 +   band10 = 1.70u
 *
 ***********************************************************************
 * define rgate diffusion parameters
 ***********************************************************************
 .param
 +   diff_thn = 0.36u                         $ [meter]
 +   diff_thk = 0.44u
 *
 ***********************************************************************
 * process parameters
 ***********************************************************************
 .param   
 +   pi      = 3.14159
 +   e0      = 8.8542p
 +   ersi    = 11.9
 +   mu0     = 1.2566e-6
 +   eoxsti  = 3.9
 +   eoxdepo = 4.1
 *
 *                                            $ process image distributions
 +   xistns  = agauss(0,mc_std,3)             $ ns bias
 +   distns  = xistns
 +   xistnw  = agauss(0,mc_std,3)             $ nw bias
 +   distnw  = xistnw
 +   xistkx  = agauss(0,mc_std,3)             $ kx bias
 +   distkx  = xistkx
 +   xistl1  = agauss(0,mc_std,3)             $ l1 bias
 +   distl1  = xistl1
 * 
 +   ndelrx  = -0.045u                        $ shallow trench image
 *                                            $ rx bias tolerance
 +   tdelrx  = '0.04u * (dnwint*mc_gl_f - cnr_rx)'
 +   delrx   = 'ndelrx + tdelrx'
 *                                            $ pc image bias tolerance
 +   tdelpc  = '0.1u * (dnlmtx*mc_gl_f - cnr_pc)'
 *                                            $ poly line width bias
 +   lwbpc   = '-0.028u + 0.022u*(dnlmtx*mc_gl_f - cnr_pc)'
 *                                            $ dg poly line width bias
 +   lwbpcdg = '-0.020u + 0.034u*(ddgnlmtx*mc_gl_f - cnr_pc)'
 *
 +   opendf   = '0.50u + 0.5*tdelrx'          $ rx overlap past ca
 +   oppcendf = '0.45u + 0.5*lwbpc'           $ pc overlap past ca
 *
 +   tdelkx   = '0.14u * distkx'              $ kx bias tolerance
 +   tdell1   = '0.20u * distl1'              $ l1 bias tolerance
 +   ndelnw   =  0.44u                        $ nw image
 +   tdelnw   = '0.24u*distnw'
 +   nwendf   = '0.90u + 0.5*tdelnw'          $ nw overlap past contacts
 +   delns    = '0.90u + 0.30u*distns'        $ ns image (with outdiffusion)
 +   kxendf   = '0.90u + 0.5*tdelkx'          $ kx overlap past vx
 +   wanodn   = 2.0u                          $ esd n+/sx anode width
 *
 *                                            $ process profile distributions
 +   xthnox  = agauss('-cnr_tox',mc_std,3)    $ thin gate oxide
 +   dthnox  = xthnox
 +   xthkox  = agauss('-cnr_toxd',mc_std,3)   $ thick gate oxide
 +   dthkox  = xthkox
 +   xpcthk  = agauss(cnr_ind,mc_std,3)       $ poly line thickness
 +   dpcthk  = xpcthk
 +   xpcsti  = agauss(cnr_ind,mc_std,3)       $ sti thickness
 +   dpcsti  = xpcsti
 *
 +   oppcthkn = 0.15u                         $ poly line thickness
 +   oppcthkf = 'oppcthkn + 0.015u*dpcthk'
 +   oppcstin = 0.35u                         $ sti thickness
 +   oppcstif = 'oppcstin + 0.03u*dpcsti'
 +   oppcstie = 'oppcstif + 0.062u'           $ effective sti thickness
 *
 *                                       pc area, peri cap (f/meter**2, f/meter)
 +   oppcdown = '3.453e-11 / oppcstie'
 +   oppcfrng = '3.453e-11 * (1.18 + (2/pi)*log(1 + oppcthkn/oppcstie))'
 *
 *                                              n+ s/d resistor
 *
 +   xndrs     = agauss(cnr_res,mc_std,3)
 +   dndrs     = xndrs
 +   xndren    = agauss(cnr_res,mc_std,3)
 +   dndren    = xndren
 *
 +   opndrsn   = 73                           $ rs, ohm/sq
 +   opndrsf   = 'opndrsn + 9.5*dndrs'
 +   opndrenn  = 12u                          $ rend, ohm-meter exponent
 +   opndrenf  = 'opndrenn+ 11.999u*dndren'
 +   opnddwn   = -0.034u                      $ delta w
 +   opnddwf   = 'opnddwn + tdelrx'
 +   opndrstc  =  1810u                       $ rs   tcr = +1810 ppm
 +   opndrntc  =  2100u                       $ rend tcr = +2100 ppm
 +   opndvcr   =   900u                       $ vcr = 900 ppm/v
 +   opndma    =  4.0                         $ mis-match coefficients
 +   opndml    =  2.0
 +   opndmw    =  0
 +   ndrgw     = 3000                         $ parasitic res parameters
 +   ndrgl     = 200
 *
 *                                              nwell resistor
 *
 +   xnwrs     = agauss(cnr_res,mc_std,3)
 +   dnwrs     = xnwrs
 *
 +   nwrsn     = 540                          $ rs, ohm/sq
 +   nwrsf     = 'nwrsn + 110*dnwrs'
 +   nwdwn     = -0.02u                       $ delta w
 +   nwdwf     = 'nwdwn + tdelnw'
 +   nwrstc1   =  1175u                       $ rs  tcr1 = +1175 ppm
 +   nwrstc2   =    10u                       $ rs  tcr2 = +  10 ppm
 +   nwrntc    =  3000u                       $ rend tcr = +3000 ppm
 +   nwshk     =  120                         $ self-heating parameters
 +   nwshm     = -0.05
 +   nwvcr     =  16.8m                       $ vcr = 16.8k ppm/v
 +   nwma      =  1.7                         $ mis-match coefficients
 +   nwml      =  0
 +   nwmw      =  1.0
 *
 *                                              silcide resistor
 *
 +   xpcrsi    = agauss(cnr_res,mc_std,3)     $ silicided poly sheet rho dist
 +   dpcrsi    = xpcrsi
 *
 +   pcrsin    =  7.0                         $ rs, ohm/sq
 +   pcrsi     = 'pcrsin + 3.0*dpcrsi'
 *
 +   xsilren   = agauss(cnr_res,mc_std,3)
 +   dsilren   = xsilren
 +   xcadim    = agauss(cnr_res,mc_std,3)
 +   dcadim    = xcadim
 *
 +   silren    =  0.884                       $ rend, ohm-meter, exponent
 +   silref    = 'silren + 1.012*dsilren'
 +   silrdwn   =  0.017u                      $ delta w
 +   silrdwf   = 'silrdwn + 0.022u*(dnlmtx*mc_gl_f - cnr_pc)'
 +   silrdln   =  0.0u                        $ delta l
 +   silrdlf   = 'silrdln + 0.025u*dcadim'
 +   silrst1   =  3260u                       $ rs   tc1 = +3260 ppm
 +   silrntc   =  1860u                       $ rend tcr = +1860 ppm
 +   silrma    =  0.7                         $ mis-match coefficients
 +   silrml    =  0.2
 +   silrmw    =  0.4
 *
 *                                              p+ poly resistor
 *
 +   xpcrs     = agauss(cnr_res,mc_std,3)
 +   dpcrs     = xpcrs
 +   xpcren    = agauss(cnr_res,mc_std,3)
 +   dpcren    = xpcren
 +   xnoipc    = agauss(cnr_res,mc_std,3)
 +   dnoipc    = xnoipc
 *
 +   oppcrsn   =  340                         $ rs, ohm/sq
 +   oppcrsf   = 'oppcrsn + 51*dpcrs'
 +   oppcrenn  = 54u                          $ rend, ohm-meter exponent
 +   oppcrenf  = 'oppcrenn + 16u*dpcren'
 +   oppcdwn   = -0.031u                      $ delta w
 +   oppcdwf   = 'oppcdwn + tdelpc'
 +   oppcrst1  =  77u                         $ rs   tc1 = +  77 ppm
 +   oppcrst2  =  0u                          $ rs   tc2 =     0 ppm
 +   oppcrntc  = -1220u                       $ rend tcr = -1220 ppm
 +   oppcma    =  4.0                         $ mis-match coefficients
 +   oppcml    =  0
 +   oppcmw    =  1.0
 +   pcnwrgw   = 500                          $ parasitic res parameters
 +   pcnwrgl   = 300
 +   pcbbrgw   = 300
 +   pcbbrgl   = 100
 +   pcsxrgw   = 500
 +   pcsxrgl   = 300
 *
 *                                              rp poly resistor
 *
 +   xrprs     = agauss(cnr_res,mc_std,3)
 +   drprs     = xrprs
 +   xrpren    = agauss(cnr_res,mc_std,3)
 +   drpren    = xrpren
 +   xnoirp    = agauss(cnr_res,mc_std,3)
 +   dnoirp    = xnoirp
 *
 +   oprprsn   =  228                         $ rs, ohm/sq
 +   oprprsf   = 'oprprsn + 18.2*drprs'
 +   oprprenn  =  45u                         $ rend, ohm-meter exponent
 +   oprprenf  = 'oprprenn + 30u*drpren'
 +   oprpdwn   = -0.031u                      $ delta w
 +   oprpdwf   = 'oprpdwn + tdelpc'
 +   oprprst1  =    45u                       $ rs  tcr1 = +  79 ppm
 +   oprprst2  =  0.20u                       $ rs  tcr2 = + 0.2 ppm
 +   oprprntc  =   750u                       $ rend tcr = + 750 ppm
 +   oprpma    =  7.0                         $ mis-match coefficients
 +   oprpml    =  0
 +   oprpmw    =  2.0
 +   rpnwrgw   = 500                          $ parasitic res parameters
 +   rpnwrgl   = 300
 +   rpbbrgw   = 300
 +   rpbbrgl   = 100
 +   rpsxrgw   = 500
 +   rpsxrgl   = 300
 *
 *                                              rr poly resistor
 *
 +   xrrrs     = agauss(cnr_res,mc_std,3)
 +   drrrs     = xrrrs
 +   xdlbn     = agauss('-cnr_res',mc_std,3)
 +   ddlbn     = xdlbn
 +   xnoirr    = agauss(cnr_res,mc_std,3)
 +   dnoirr    = xnoirr
 *
 +   oprrrsn   = 1700                         $ rs, ohm/sq
 +   oprrrsf   = 'oprrrsn + 340*drrrs'
 +   opdlbnn   =  0.439u                      $ bn overlap op + outdiffusion
 +   opdlbnf   = 'opdlbnn + 0.11u*ddlbn'
 +   oprrdwn   = -0.073u                      $ delta w
 +   oprrdwf   = 'oprrdwn + tdelpc'
 +   oprrtc1   = -1173u                       $ rs tcr1 = -1173 ppm
 +   oprrtc2   =  2.60u                       $ rs tcr2 = +2.60 ppm
 +   oprrshk   =  130                         $ self-heating parameters
 +   oprrshm   =  0.18
 +   oprrvcr   = -300u                        $ vcr = -300 ppm/v
 +   oprrma    =  5.0                         $ mis-match coefficients
 +   oprrml    =  0
 +   oprrmw    =  1.0
 +   rrnwrgw   = 300                          $ parasitic res parameters
 +   rrnwrgl   = 200
 +   rrbbrgw   =  70
 +   rrbbrgl   = 100
 +   rrsxrgw   = 300
 +   rrsxrgl   = 200
 *
 *                                              kx beol resistor
 *
 +   xkxrs     = agauss(cnr_res,mc_std,3)
 +   dkxrs     = xkxrs
 +   xkxren    = agauss(cnr_res,mc_std,3)
 +   dkxren    = xkxren
 *
 +   kxrsn     =  58.5                        $ rs, ohm/sq
 +   kxrsf     = 'kxrsn + 4.68*dkxrs'
 +   kxrenn    =  20u                         $ rend, ohm-meter
 +   kxrenf    = '1u*(exp(3.6243+0.5108*dkxren)-17.5)'
 +   kxdwn     =  0.22u                       $ delta w
 +   kxdwf     = 'kxdwn + tdelkx'
 +   kxrstc1   = -375u                        $ rs tc1 = - 375 ppm
 +   kxrstc2   =  0u                          $ rs tc2 =     0 ppm
 +   kxrntc    =  2500u                       $ ren tc = +2500 ppm
 +   kxshk     =  100                         $ self-heating parameters
 +   kxshm     =  0.25
 +   kxma      =  0.6                         $ mis-match coefficients
 +   kxml      =  0.387
 +   kxmw      =  0.5
 +   kxms      =  0
 *
 *                                              l1 beol resistor
 *
 +   xl1rs     = agauss(cnr_res,mc_std,3)
 +   dl1rs     = xl1rs
 +   xl1ren    = agauss(cnr_res,mc_std,3)
 +   dl1ren    = xl1ren
 *
 +   l1rsn     =  60                          $ rs, ohm/sq
 +   l1rsf     = 'l1rsn + 4.8*dl1rs'
 +   l1renn    =  3.6243                      $ rend exponent, ohm-meter
 +   l1renf    = 'l1renn + 0.5108*dl1ren'
 +   l1dwn     =  0.22u                       $ delta w
 +   l1dwf     = 'l1dwn + tdell1'
 *
 *                                              nfet
 *
 +   xnu0      = agauss(0,mc_std,3)
 +   dnu0      = xnu0
 +   xncgov    = agauss('-cnr_n',mc_std,3)
 +   dncgov    = xncgov
 +   xncj      = agauss('-cnr_n',mc_std,3)
 +   dncj      = xncj
 +   xncjsw    = agauss('-cnr_n',mc_std,3)
 +   dncjsw    = xncjsw
 +   xncjsg    = agauss('-cnr_n',mc_std,3)
 +   dncjsg    = xncjsg
 +   xnrdsw    = agauss('-cnr_n*(1-fixcnr)',mc_std,3)
 +   dnrdsw    = xnrdsw
 +   xnoi_n    = agauss('-cnr_noin',mc_std,3)
 +   dnoi_n    = xnoi_n
 *
 *                                            $ fixed corner adders
 +   cvth_n    = 'fixcnr * skewfix(0.113,0.0793,0.1512,cnr_n)'
 +   cpvt_n    = 'fixcnr * skewfix(0,-0.0007865,0.0008827,cnr_n)'
 +   cxl_n     = 'fixcnr * skewfix(2.8e-8,3.35e-8,2.25e-8,cnr_n)'
 +   clpc_n    = 'fixcnr * skewfix(2.8e-8,3.35e-8,2.25e-8,cnr_pc)'
 +   cxw_n     = 'fixcnr * skewfix(1.0e-8,-1.0e-8,3e-8,cnr_n)'
 +   cwrx_n    = 'fixcnr * skewfix(1.0e-8,-1.0e-8,3e-8,cnr_rx)'
 +   cu0_n     = 'fixcnr * skewfix(440,453.2,387.2,cnr_n)'
 +   crds_n    = 'fixcnr * skewfix(55,52.525,57.475,cnr_n)'
 *
 *                                            $ gate oxide thickness (meter)
 +   toxe_n    = '3.03n + 0.2n*dthnox'
 +   toxp_n    = '2.70n + 0.15n*dthnox'
 *                                            $ base threshold voltage (v)
 +   vtol_n    = '0.036*(vmtx_n*mc_gl_f - cnr_n*(1-fixcnr))'
 +   vth0_n    = '0.113 + vtol_n + cvth_n'
 +   pvth0_n   = '0 + cpvt_n'
 +   lint_n    = '0.014u + cxl_n + clpc_n'    $ delta l (one side)
 +   ltol_n    = -0.0055u
 +   xlint_n   = 'lmtx_n*mc_gl_f - cnr_pc*(1-fixcnr)'
 +   wint_n    = '5n + cxw_n + cwrx_n'        $ delta w (one side)
 +   wtol_n    = -0.02u
 +   xwint_n   = 'dnwint*mc_gl_f - cnr_rx*(1-fixcnr)'
 +   xu0_n     = 'dnu0*mc_gl_f + cnr_n*(1-fixcnr)'
 +   u0_n      = '440 + 100*xu0_n + cu0_n'    $ base mobility (cm**2/vsec)
 +   rdsw_n    = '55.0 + 13*dnrdsw + crds_n'  $ base series res (ohm-um)
 +   cgsl_n    = '330p + 45p*dncgov'          $ g/s overlap cap at 0v (f/meter)
 +   cgdl_n    = '330p + 45p*dncgov'          $ g/d overlap cap at 0v (f/meter)
 +   cgso_n    = 0                            $ g/s overlap cap offset (f/meter)
 +   cgdo_n    = 0                            $ g/d overlap cap offset (f/meter)
 +   rsh_n     = pcrsi                        $ s/d sheet resistance (ohms/sq)
 +   js_n      = 0.107u                       $ n+ area sat cur (a/meter**2)
 +   jsw_n     = 73f                          $ n+ sidewall sat cur (a/meter)
 +   n_n       = 1.017                        $ ideality
 +   cj_n      = '1.05m + 0.20m*dncj'         $ n+ diode cap (f/meter**2)
 +   pb_n      = 0.72                         $ voltage dependence
 +   mj_n      = 0.35
 +   cjsw_n    = '50p + 17.5p*dncjsw'         $ n+ sti sidewall cap (f/meter)
 +   pbsw_n    = 1.0                          $ voltage dependence
 +   mjsw_n    = 0.01
 +   cjsg_n    = '380p + 76p*dncjsg'          $ n+ gate sidewall cap (f/meter)
 +   pbsg_n    = 1.128                        $ voltage dependence
 +   mjsg_n    = 0.639
 +   cta_n     = 1.0m                         $ temperature parameters
 +   pta_n     = 1.5m
 +   ctp_n     = 1.4m
 +   ptp_n     = 0
 +   bd_n      = 10.5
 +   lk1a_n    = 0.81m                        $ diode leakage parameters
 +   lk3a_n    = 32u
 +   lk1p_n    = 0.8n
 +   lk3p_n    = 0
 *
 *                                              pfet
 *
 +   xpu0      = agauss(0,mc_std,3)
 +   dpu0      = xpu0
 +   xpcgov    = agauss('-cnr_p',mc_std,3)
 +   dpcgov    = xpcgov
 +   xpcj      = agauss('-cnr_p',mc_std,3)
 +   dpcj      = xpcj
 +   xpcjsw    = agauss('-cnr_p',mc_std,3)
 +   dpcjsw    = xpcjsw
 +   xpcjsg    = agauss('-cnr_p',mc_std,3)
 +   dpcjsg    = xpcjsg
 +   xprdsw    = agauss('-cnr_p*(1-fixcnr)',mc_std,3)
 +   dprdsw    = xprdsw
 +   xnoi_p    = agauss('-cnr_noip',mc_std,3)
 +   dnoi_p    = xnoi_p
 *
 *                                            $ fixed corner adders
 +   cvth_p    = 'fixcnr * skewfix(-0.236,-0.1915,-0.2735,cnr_p)'
 +   cpvt_p    = 'fixcnr * skewfix(0,0.0004927,-0.0003915,cnr_p)'
 +   cxl_p     = 'fixcnr * skewfix(2.8e-8,3.35e-8,2.25e-8,cnr_p)'
 +   clpc_p    = 'fixcnr * skewfix(2.8e-8,3.35e-8,2.25e-8,cnr_pc)'
 +   cxw_p     = 'fixcnr * skewfix(-2.0e-8,-4.0e-8,0e-8,cnr_p)'
 +   cwrx_p    = 'fixcnr * skewfix(-2.0e-8,-4.0e-8,0e-8,cnr_rx)'
 +   cu0_p     = 'fixcnr * skewfix(94,96.82,82.72,cnr_p)'
 +   crds_p    = 'fixcnr * skewfix(110,96.14,126.5,cnr_p)'
 *
 *                                            $ gate oxide thickness (meter)
 +   toxe_p    = '3.23n + 0.2n*dthnox'
 +   toxp_p    = '2.674n + 0.15n*dthnox'
 *                                            $ base threshold voltage (v)
 +   vtol_p    = '0.036*(vmtx_p*mc_gl_f + cnr_p*(1-fixcnr))'
 +   vth0_p    = '-0.236 + vtol_p + cvth_p'
 +   pvth0_p   = '0 + cpvt_p'
 +   lint_p    = '0.014u + cxl_p + clpc_p'    $ delta l (one side)
 +   ltol_p    = -0.0055u
 +   xlint_p   = 'lmtx_p*mc_gl_f - cnr_pc*(1-fixcnr)'
 +   wint_p    = '0.02u + cxw_p + cwrx_p'     $ delta w (one side)
 +   wtol_p    = -0.02u
 +   xwint_p   = 'dpwint*mc_gl_f - cnr_rx*(1-fixcnr)'
 +   xu0_p     = 'dpu0*mc_gl_f + cnr_p*(1-fixcnr)'
 +   u0_p      = '94 + 16*xu0_p + cu0_p'      $ base mobility (cm**2/vsec)
 +   rdsw_p    = '110 + 16.5*dprdsw + crds_p' $ base series res (ohm-um)
 +   cgsl_p    = '300p + 45p*dpcgov'          $ g/s overlap cap at 0v (f/meter)
 +   cgdl_p    = '300p + 45p*dpcgov'          $ g/d overlap cap at 0v (f/meter)
 +   cgso_p    = 17p                          $ g/s overlap cap offset (f/meter)
 +   cgdo_p    = 17p                          $ g/d overlap cap offset (f/meter)
 +   rsh_p     = pcrsi                        $ s/d sheet resistance (ohms/sq)
 +   js_p      = 90n                          $ p+ area sat cur (a/meter**2)
 +   jsw_p     = 27f                          $ p+ sidewall sat cur (a/meter)
 +   n_p       = 1.006                        $ ideality
 +   cj_p      = '1.05m + 0.20m*dpcj'         $ p+ diode cap (f/meter**2)
 +   pb_p      = 0.66                         $ voltage dependence
 +   mj_p      = 0.41
 +   cjsw_p    = '50p + 17.5p*dpcjsw'         $ p+ sti sidewall cap (f/meter)
 +   pbsw_p    = 1.0                          $ voltage dependence
 +   mjsw_p    = 0.01
 +   cjsg_p    = '415p + 83p*dpcjsg'          $ p+ gate sidewall cap (f/meter)
 +   pbsg_p    = 1.16                         $ voltage dependence
 +   mjsg_p    = 0.574
 +   cta_p     = 1.0m                         $ temperature parameters
 +   pta_p     = 1.1m
 +   ctp_p     = 2.5m
 +   ptp_p     = 0
 +   bd_p      = 10.5
 +   lk1a_p    = 0.6m                         $ diode leakage parameters
 +   lk3a_p    = 20u
 +   lk1p_p    = 0.8n
 +   lk3p_p    = 5p
 *
 *                                              lpnfet
 *
 +   xlpnvsat  = agauss('cnr_lpn*(1-fixcnr)',mc_std,3)
 +   dlpnvsat  = xlpnvsat
 +   xlpnu0    = agauss(0,mc_std,3)
 +   dlpnu0    = xlpnu0
 +   xlpncgov  = agauss('-cnr_lpn',mc_std,3)
 +   dlpncgov  = xlpncgov
 +   xlpncj    = agauss('-cnr_lpn',mc_std,3)
 +   dlpncj    = xlpncj
 +   xlpncjsw  = agauss('-cnr_lpn',mc_std,3)
 +   dlpncjsw  = xlpncjsw
 +   xlpncjsg  = agauss('-cnr_lpn',mc_std,3)
 +   dlpncjsg  = xlpncjsg
 +   xnoi_lpn  = agauss('-cnr_noin',mc_std,3)
 +   dnoi_lpn  = xnoi_lpn
 *
 *                                            $ fixed corner adders
 +   cvth_lpn  = 'fixcnr * skewfix(0.5583,0.50576,0.60795,cnr_lpn)'
 +   cpvt_lpn  = 'fixcnr * skewfix(0,-0.0032837,0.0032665,cnr_lpn)'
 +   cxl_lpn   = 'fixcnr * skewfix(2.8e-8,3.65e-8,1.45e-8,cnr_lpn)'
 +   clpc_lpn  = 'fixcnr * skewfix(2.8e-8,3.35e-8,2.24e-8,cnr_pc)'
 +   cxw_lpn   = 'fixcnr * skewfix(1.0e-8,-1.0e-8,3e-8,cnr_lpn)'
 +   cwrx_lpn  = 'fixcnr * skewfix(1.0e-8,-1.0e-8,3e-8,cnr_rx)'
 +   cu0_lpn   = 'fixcnr * skewfix(440.2,453.4,387.4,cnr_lpn)'
 +   crds_lpn  = 'fixcnr * skewfix(45,30.38,72,cnr_lpn)'
 *
 *                                            $ gate oxide thickness (meter)
 +   toxe_lpn  = '3.03n + 0.2n*dthnox'
 +   toxp_lpn  = '2.637n + 0.15n*dthnox'
 *                                            $ base threshold voltage (v)
 +   vtol_lpn  = '0.075*(dlpnvth0*mc_gl_f - cnr_lpn*(1-fixcnr))'
 +   vth0_lpn  = '0.5583 + vtol_lpn + cvth_lpn'
 +   pvth0_lpn = '0 + cpvt_lpn'
 +   vsat_lpn  = '1.080e5 + 1.045e4*dlpnvsat' $ saturation velocity (m/sec)
 +   lint_lpn  = '0.014u + cxl_lpn + clpc_lpn'  $ delta l (one side)
 +   ltol_lpn  = -0.0055u
 +   xlint_lpn = 'lmtx_lpn*mc_gl_f - cnr_pc*(1-fixcnr)'
 +   wint_lpn  = '0.005u + cxw_lpn + cwrx_lpn'  $ delta w (one side)
 +   wtol_lpn  = -0.02u
 +   xwint_lpn = 'dlpnwint*mc_gl_f - cnr_rx*(1-fixcnr)'
 +   xu0_lpn   = 'dlpnu0*mc_gl_f + cnr_lpn*(1-fixcnr)'
 +   u0_lpn    = '440.2 + 110*xu0_lpn + cu0_lpn'  $ base mobility (cm**2/vsec)
 +   rdsw_lpn  = '45 + 15*dnrdsw + crds_lpn'  $ base series res (ohm-um)
 +   cgsl_lpn  = '330p + 45p*dlpncgov'        $ g/s overlap cap at 0v (f/meter)
 +   cgdl_lpn  = '330p + 45p*dlpncgov'        $ g/d overlap cap at 0v (f/meter)
 +   cgso_lpn  = 0                            $ g/s overlap cap offset (f/meter)
 +   cgdo_lpn  = 0                            $ g/d overlap cap offset (f/meter)
 +   rsh_lpn   = pcrsi                        $ s/d sheet resistance (ohms/sq)
 +   js_lpn    = 0.107u                       $ n+ area sat cur (a/meter**2)
 +   jsw_lpn   = 73f                          $ n+ sidewall sat cur (a/meter)
 +   n_lpn     = 1.017                        $ ideality
 +   cj_lpn    = '1.15m + 0.23m*dlpncj'       $ n+ diode cap (f/meter**2)
 +   pb_lpn    = 0.72                         $ voltage dependence
 +   mj_lpn    = 0.35
 +   cjsw_lpn  = '50p + 17.5p*dlpncjsw'       $ n+ sti sidewall cap (f/meter)
 +   pbsw_lpn  = 1.0                          $ voltage dependence
 +   mjsw_lpn  = 0.01
 +   cjsg_lpn  = '441p + 88p*dlpncjsg'        $ n+ gate sidewall cap (f/meter)
 +   pbsg_lpn  = 1.128                        $ voltage dependence
 +   mjsg_lpn  = 0.639
 *
 *                                              lppfet
 *
 +   xlppu0    = agauss(0,mc_std,3)
 +   dlppu0    = xlppu0
 +   xlppcgov  = agauss('-cnr_lpp',mc_std,3)
 +   dlppcgov  = xlppcgov
 +   xlppcj    = agauss('-cnr_lpp',mc_std,3)
 +   dlppcj    = xlppcj
 +   xlppcjsw  = agauss('-cnr_lpp',mc_std,3)
 +   dlppcjsw  = xlppcjsw
 +   xlppcjsg  = agauss('-cnr_lpp',mc_std,3)
 +   dlppcjsg  = xlppcjsg
 +   xnoi_lpp  = agauss('-cnr_noip',mc_std,3)
 +   dnoi_lpp  = xnoi_lpp
 *
 *                                            $ fixed corner adders
 +   cvth_lpp  = 'fixcnr * skewfix(-0.4577,-0.3349,-0.5795,cnr_lpp)'
 +   cpvt_lpp  = 'fixcnr * skewfix(-0.00295,0.00098,-0.00716,cnr_lpp)'
 +   cxl_lpp   = 'fixcnr * skewfix(2.8e-8,2.85e-8,1.95e-8,cnr_lpp)'
 +   clpc_lpp  = 'fixcnr * skewfix(2.8e-8,3.35e-8,2.25e-8,cnr_pc)'
 +   cxw_lpp   = 'fixcnr * skewfix(-2.0e-8,-4.0e-8,0e-8,cnr_lpp)'
 +   cwrx_lpp  = 'fixcnr * skewfix(-2.0e-8,-4.0e-8,0e-8,cnr_rx)'
 +   cu0_lpp   = 'fixcnr * skewfix(114.8,128.58,101.02,cnr_lpp)'
 +   crds_lpp  = 'fixcnr * skewfix(162,154.7,259.2,cnr_lpp)'
 *
 *                                            $ gate oxide thickness (meter)
 +   toxe_lpp   = '3.23n + 0.2n*dthnox'
 +   toxp_lpp   = '2.864n + 0.15n*dthnox'
 *                                            $ base threshold voltage (v)
 +   vtol_lpp  = '0.095*(dlppvth0*mc_gl_f + cnr_lpp*(1-fixcnr))'
 +   vth0_lpp  = '-0.4577 + vtol_lpp + cvth_lpp'
 +   pvth0_lpp = '-0.00295 + cpvt_lpp'
 +   lint_lpp  = '0.014u + cxl_lpp + clpc_lpp'  $ delta l (one side)
 +   ltol_lpp  = -0.0055u
 +   xlint_lpp = 'lmtx_lpp*mc_gl_f - cnr_pc*(1-fixcnr)'
 +   wint_lpp  = '0.02u + cxw_lpp + cwrx_lpp'   $ delta w (one side)
 +   wtol_lpp  = -0.02u
 +   xwint_lpp = 'dlppwint*mc_gl_f - cnr_rx*(1-fixcnr)'
 +   xu0_lpp   = 'dlppu0*mc_gl_f + cnr_lpp*(1-fixcnr)'
 +   u0_lpp    = '114.8 + 56*xu0_lpp + cu0_lpp'  $ base mobility (cm**2/vsec)
 +   rdsw_lpp  = '162 + 32*dprdsw + crds_lpp' $ base series res (ohm-um)
 +   cgsl_lpp  = '310p + 45p*dlppcgov'        $ g/s overlap cap at 0v (f/meter)
 +   cgdl_lpp  = '310p + 45p*dlppcgov'        $ g/d overlap cap at 0v (f/meter)
 +   cgso_lpp  = 0                            $ g/s overlap cap offset (f/meter)
 +   cgdo_lpp  = 0                            $ g/d overlap cap offset (f/meter)
 +   rsh_lpp   = pcrsi                        $ s/d sheet resistance (ohms/sq)
 +   js_lpp    = 90n                          $ p+ area sat cur (a/meter**2)
 +   jsw_lpp   = 27f                          $ p+ sidewall sat cur (a/meter)
 +   n_lpp     = 1.006                        $ ideality
 +   cj_lpp    = '1.25m + 0.25m*dlppcj'       $ p+ diode cap (f/meter**2)
 +   pb_lpp    = 0.65                         $ voltage dependence
 +   mj_lpp    = 0.41
 +   cjsw_lpp  = '50p + 17.5p*dlppcjsw'       $ p+ sti sidewall cap (f/meter)
 +   pbsw_lpp  = 1.0                          $ voltage dependence
 +   mjsw_lpp  = 0.01
 +   cjsg_lpp  = '494p + 99p*dlppcjsg'        $ p+ gate sidewall cap (f/meter)
 +   pbsg_lpp  = 1.16                         $ voltage dependence
 +   mjsg_lpp  = 0.574
 *
 *                                              lvt nfet
 *
 +   xlvnu0    = agauss(0,mc_std,3)
 +   dlvnu0    = xlvnu0
 +   xlvncgov  = agauss('-cnr_lvn',mc_std,3)
 +   dlvncgov  = xlvncgov
 +   xlvncj    = agauss('-cnr_lvn',mc_std,3)
 +   dlvncj    = xlvncj
 +   xlvncjsw  = agauss('-cnr_lvn',mc_std,3)
 +   dlvncjsw  = xlvncjsw
 +   xlvncjsg  = agauss('-cnr_lvn',mc_std,3)
 +   dlvncjsg  = xlvncjsg
 +   xnoi_lvn  = agauss('-cnr_noin',mc_std,3)
 +   dnoi_lvn  = xnoi_lvn
 *
 *                                            $ fixed corner adders
 +   cvth_lvn  = 'fixcnr * skewfix(0.06417,0.000763,0.1354,cnr_lvn)'
 +   cpvt_lvn  = 'fixcnr * skewfix(0,-0.001551,-0.0003284,cnr_lvn)'
 +   cxl_lvn   = 'fixcnr * skewfix(2.8e-8,3.0e-8,2.25e-8,cnr_lvn)'
 +   clpc_lvn  = 'fixcnr * skewfix(2.8e-8,3.35e-8,2.25e-8,cnr_pc)'
 +   cxw_lvn   = 'fixcnr * skewfix(1.0e-8,-1.0e-8,3e-8,cnr_lvn)'
 +   cwrx_lvn  = 'fixcnr * skewfix(1.0e-8,-1.0e-8,3e-8,cnr_rx)'
 +   cu0_lvn   = 'fixcnr * skewfix(499,514,481.4,cnr_lvn)'
 +   crds_lvn  = 'fixcnr * skewfix(55,52.525,57.475,cnr_lvn)'
 *
 *                                            $ gate oxide thickness (meter)
 +   toxe_lvn  = '3.03n + 0.2n*dthnox'
 +   toxp_lvn  = '2.70n + 0.15n*dthnox'
 *                                            $ base threshold voltage (v)
 +   vtol_lvn  = '0.045*(vmtx_lvn*mc_gl_f - cnr_lvn*(1-fixcnr))'
 +   vth0_lvn  = '0.06417 + vtol_lvn + cvth_lvn'
 +   pvth0_lvn = '0 + cpvt_lvn'
 +   lint_lvn  = '0.014u + cxl_lvn + clpc_lvn'  $ delta l (one side)
 +   ltol_lvn  = -0.0055u
 +   xlint_lvn = 'lmtx_lvn*mc_gl_f - cnr_pc*(1-fixcnr)'
 +   wint_lvn  = '0.005u + cxw_lvn + cwrx_lvn'  $ delta w (one side)
 +   wtol_lvn  = -0.02u
 +   xwint_lvn = 'dlvnwint*mc_gl_f - cnr_rx*(1-fixcnr)'
 +   xu0_lvn   = 'dlvnu0*mc_gl_f + cnr_lvn*(1-fixcnr)'
 +   u0_lvn    = '499 - 150*xu0_lvn + cu0_lvn'   $ base mobility (cm**2/vsec)
 +   rdsw_lvn  = '55 + 11*dnrdsw + crds_lvn'  $ base series res (ohm-um)
 +   cgsl_lvn  = '340p + 45p*dlvncgov'        $ g/s overlap cap at 0v (f/meter)
 +   cgdl_lvn  = '340p + 45p*dlvncgov'        $ g/d overlap cap at 0v (f/meter)
 +   cgso_lvn  = 0                            $ g/s overlap cap offset (f/meter)
 +   cgdo_lvn  = 0                            $ g/d overlap cap offset (f/meter)
 +   rsh_lvn   = pcrsi                        $ s/d sheet resistance (ohms/sq)
 +   js_lvn    = 0.107u                       $ n+ area sat cur (a/meter**2)
 +   jsw_lvn   = 73f                          $ n+ sidewall sat cur (a/meter)
 +   n_lvn     = 1.017                        $ ideality
 +   cj_lvn    = '1.05m + 0.20m*dlvncj'       $ n+ diode cap (f/meter**2)
 +   pb_lvn    = 0.72                         $ voltage dependence
 +   mj_lvn    = 0.335
 +   cjsw_lvn  = '15p + 5.25p*dlvncjsw'       $ n+ sti sidewall cap (f/meter)
 +   pbsw_lvn  = 1.0                          $ voltage dependence
 +   mjsw_lvn  = 0.3
 +   cjsg_lvn  = '365p + 73p*dlvncjsg'        $ n+ gate sidewall cap (f/meter)
 +   pbsg_lvn  = 1.128                        $ voltage dependence
 +   mjsg_lvn  = 0.67
 *
 *                                              lvt pfet
 *
 +   xlvpu0    = agauss(0,mc_std,3)
 +   dlvpu0    = xlvpu0
 +   xlvpcgov  = agauss('-cnr_lvp',mc_std,3)
 +   dlvpcgov  = xlvpcgov
 +   xlvpcj    = agauss('-cnr_lvp',mc_std,3)
 +   dlvpcj    = xlvpcj
 +   xlvpcjsw  = agauss('-cnr_lvp',mc_std,3)
 +   dlvpcjsw  = xlvpcjsw
 +   xlvpcjsg  = agauss('-cnr_lvp',mc_std,3)
 +   dlvpcjsg  = xlvpcjsg
 +   xnoi_lvp  = agauss('-cnr_noip',mc_std,3)
 +   dnoi_lvp  = xnoi_lvp
 *
 *                                            $ fixed corner adders
 +   cvth_lvp  = 'fixcnr * skewfix(-0.082,-0.03094,-0.1274,cnr_lvp)'
 +   cpvt_lvp  = 'fixcnr * skewfix(0,-0.004973,-0.005969,cnr_lvp)'
 +   cxl_lvp   = 'fixcnr * skewfix(2.8e-8,3.0e-8,2.25e-8,cnr_lvp)'
 +   clpc_lvp  = 'fixcnr * skewfix(2.8e-8,3.35e-8,2.25e-8,cnr_pc)'
 +   cxw_lvp   = 'fixcnr * skewfix(-2.0e-8,-4.0e-8,0e-8,cnr_lvp)'
 +   cwrx_lvp  = 'fixcnr * skewfix(-2.0e-8,-4.0e-8,0e-8,cnr_rx)'
 +   cu0_lvp   = 'fixcnr * skewfix(97.3,100.2,94.38,cnr_lvp)'
 +   crds_lvp  = 'fixcnr * skewfix(110,105.05,114.95,cnr_lvp)'
 *
 *                                            $ gate oxide thickness (meter)
 +   toxe_lvp  = '3.23n + 0.2n*dthnox'
 +   toxp_lvp  = '2.70n + 0.15n*dthnox'
 *                                            $ base threshold voltage (v)
 +   vtol_lvp  = '0.042*(vmtx_lvp*mc_gl_f + cnr_lvp*(1-fixcnr))'
 +   vth0_lvp  = '-0.082 + vtol_lvp + cvth_lvp'
 +   pvth0_lvp = '0 + cpvt_lvp'
 +   lint_lvp  = '0.014u + cxl_lvp + clpc_lvp'  $ delta l (one side)
 +   ltol_lvp  = -0.0055u
 +   xlint_lvp = 'lmtx_lvp*mc_gl_f - cnr_pc*(1-fixcnr)'
 +   wint_lvp  = '0.02u + cxw_lvp + cwrx_lvp'   $ delta w (one side)
 +   wtol_lvp  = -0.02u
 +   xwint_lvp = 'dlvpwint*mc_gl_f - cnr_rx*(1-fixcnr)'
 +   xu0_lvp   = 'dlvpu0*mc_gl_f + cnr_lvp*(1-fixcnr)'
 +   u0_lvp    = '97.3 - 12*xu0_lvp + cu0_lvp'   $ base mobility (cm**2/vsec)
 +   rdsw_lvp  = '110 + 13*dprdsw + crds_lvp' $ base series res (ohm-um)
 +   cgsl_lvp  = '340p + 45p*dlvpcgov'        $ g/s overlap cap at 0v (f/meter)
 +   cgdl_lvp  = '340p + 45p*dlvpcgov'        $ g/d overlap cap at 0v (f/meter)
 +   cgso_lvp  = 0                            $ g/s overlap cap offset (f/meter)
 +   cgdo_lvp  = 0                            $ g/d overlap cap offset (f/meter)
 +   rsh_lvp   = pcrsi                        $ s/d sheet resistance (ohms/sq)
 +   js_lvp    = 90n                          $ p+ area sat cur (a/meter**2)
 +   jsw_lvp   = 27f                          $ p+ sidewall sat cur (a/meter)
 +   n_lvp     = 1.006                        $ ideality
 +   cj_lvp    = '1.05m + 0.20m*dlvpcj'       $ p+ diode cap (f/meter**2)
 +   pb_lvp    = 0.8                          $ voltage dependence
 +   mj_lvp    = 0.4
 +   cjsw_lvp  = '8p + 2.8p*dlvpcjsw'         $ p+ sti sidewall cap (f/meter)
 +   pbsw_lvp  = 1.0                          $ voltage dependence
 +   mjsw_lvp  = 0.1
 +   cjsg_lvp  = '430p + 86p*dlvpcjsg'        $ p+ gate sidewall cap (f/meter)
 +   pbsg_lvp  = 1.16                         $ voltage dependence
 +   mjsg_lvp  = 0.65
 *
 *                                              2.5v dgnfet
 *
 +   xdgnvsat  = agauss('cnr_dgn*(1-fixcnr)',mc_std,3)
 +   ddgnvsat  = xdgnvsat
 +   xdgnu0    = agauss(0,mc_std,3)
 +   ddgnu0    = xdgnu0
 +   xdgncgov  = agauss('-cnr_dgn',mc_std,3)
 +   ddgncgov  = xdgncgov
 +   xdgncj    = agauss('-cnr_dgn',mc_std,3)
 +   ddgncj    = xdgncj
 +   xdgncjsw  = agauss('-cnr_dgn',mc_std,3)
 +   ddgncjsw  = xdgncjsw
 +   xdgncjsg  = agauss('-cnr_dgn',mc_std,3)
 +   ddgncjsg  = xdgncjsg
 +   xnoi_dgn  = agauss('-cnr_noin',mc_std,3)
 +   dnoi_dgn  = xnoi_dgn
 *
 *                                            $ fixed corner adders
 +   cvth_dgn  = 'fixcnr * skewfix(0.461,0.3909,0.5371,cnr_dgn)'
 +   cxl_dgn   = 'fixcnr * skewfix(2.8e-8,3.75e-8,1.75e-8,cnr_dgn)'
 +   clpc_dgn  = 'fixcnr * skewfix(2.8e-8,3.59e-8,1.99e-8,cnr_pc)'
 +   cxw_dgn   = 'fixcnr * skewfix(0e-8,-1.5e-8,1.5e-8,cnr_dgn)'
 +   cwrx_dgn  = 'fixcnr * skewfix(0e-8,-1.5e-8,1.5e-8,cnr_rx)'
 +   cu0_dgn   = 'fixcnr * skewfix(426,477.1,374.9,cnr_dgn)'
 +   crds_dgn  = 'fixcnr * skewfix(105,42,168,cnr_dgn)'
 *
 *                                            $ gate oxide thickness (meter)
 +   toxe_dgn  = '5.9n + 0.40n*dthkox'
 +   toxp_dgn  = '5.65n + 0.40n*dthkox'
 *                                            $ base threshold voltage (v)
 +   vtol_dgn  = '0.06*(ddgnvth0*mc_gl_f - cnr_dgn*(1-fixcnr))'
 +   vth0_dgn  = '0.461 + vtol_dgn + cvth_dgn'
 +   pvth0_dgn =  0
 +   vsat_dgn  = '7.7e4 + 1.54e4*ddgnvsat'    $ saturation velocity (m/sec)
 +   lint_dgn  = '0.014u + cxl_dgn + clpc_dgn'  $ delta l (one side)
 +   ltol_dgn  = -0.008u
 +   xlint_dgn = 'lmtx_dgn*mc_gl_f - cnr_pc*(1-fixcnr)'
 +   wint_dgn  = '0.0u + cxw_dgn + cwrx_dgn'    $ delta w (one side)
 +   wtol_dgn  = -0.015u
 +   xwint_dgn = 'ddgnwint*mc_gl_f - cnr_rx*(1-fixcnr)'
 +   xu0_dgn   = 'ddgnu0*mc_gl_f + cnr_dgn*(1-fixcnr)'
 +   u0_dgn    = '426 + 85*xu0_dgn + cu0_dgn' $ base mobility (cm**2/vsec)
 +   rdsw_dgn  = '105 + 21*dnrdsw + crds_dgn' $ base series res (ohm-um)
 +   cgsl_dgn  = '315p + 45p*ddgncgov'        $ g/s overlap cap at 0v (f/meter)
 +   cgdl_dgn  = '315p + 45p*ddgncgov'        $ g/d overlap cap at 0v (f/meter)
 +   cgso_dgn  = 0                            $ g/s overlap cap offset (f/meter)
 +   cgdo_dgn  = 0                            $ g/d overlap cap offset (f/meter)
 +   rsh_dgn   = pcrsi                        $ s/d sheet resistance (ohms/sq)
 +   js_dgn    = 4.0u                         $ n+ area sat cur (a/meter**2)
 +   jsw_dgn   = 4.0p                         $ n+ sti sidewall sat cur (a/meter)
 +   n_dgn     = 1.114                        $ ideality
 +   cj_dgn    = '1.0m + 0.20m*ddgncj'        $ n+ diode cap (f/meter**2)
 +   pb_dgn    = 0.752                        $ voltage dependence
 +   mj_dgn    = 0.34
 +   cjsw_dgn  = '28.56p + 10p*ddgncjsw'      $ n+ sti sidewall cap (f/meter)
 +   pbsw_dgn  = 0.163                        $ voltage dependence
 +   mjsw_dgn  = 0.599
 +   cjsg_dgn  = '195p + 39p*ddgncjsg'        $ n+ gate sidewall cap (f/meter)
 +   pbsg_dgn  = 1.8                          $ voltage dependence
 +   mjsg_dgn  = 0.75
 *
 *                                              2.5v dgpfet
 *
 +   xdgpu0    = agauss(0,mc_std,3)
 +   ddgpu0    = xdgpu0
 +   xdgpcgov  = agauss('-cnr_dgp',mc_std,3)
 +   ddgpcgov  = xdgpcgov
 +   xdgpcj    = agauss('-cnr_dgp',mc_std,3)
 +   ddgpcj    = xdgpcj
 +   xdgpcjsw  = agauss('-cnr_dgp',mc_std,3)
 +   ddgpcjsw  = xdgpcjsw
 +   xdgpcjsg  = agauss('-cnr_dgp',mc_std,3)
 +   ddgpcjsg  = xdgpcjsg
 +   xnoi_dgp  = agauss('-cnr_noip',mc_std,3)
 +   dnoi_dgp  = xnoi_dgp
 *
 *                                            $ fixed corner adders
 +   cvth_dgp  = 'fixcnr * skewfix(-0.4365,-0.3548,-0.4920,cnr_dgp)'
 +   cxl_dgp   = 'fixcnr * skewfix(2.8e-8,3.75e-8,1.75e-8,cnr_dgp)'
 +   clpc_dgp  = 'fixcnr * skewfix(2.8e-8,3.59e-8,1.99e-8,cnr_pc)'
 +   cxw_dgp   = 'fixcnr * skewfix(2e-8,0.5e-8,3.5e-8,cnr_dgp)'
 +   cwrx_dgp  = 'fixcnr * skewfix(2e-8,0.5e-8,3.5e-8,cnr_rx)'
 +   cu0_dgp   = 'fixcnr * skewfix(168,188.2,147.8,cnr_dgp)'
 +   crds_dgp  = 'fixcnr * skewfix(200,80,320,cnr_dgp)'
 *
 *                                            $ gate oxide thickness (meter)
 *                                            $ gate oxide thickness (meter)
 +   toxe_dgp  = '6.15n + 0.40n*dthkox'
 +   toxp_dgp  = '5.7n + 0.40n*dthkox'
 *                                            $ base threshold voltage (v)
 +   vtol_dgp  = '0.05*(ddgpvth0*mc_gl_f + cnr_dgp*(1-fixcnr))'
 +   vth0_dgp  = '-0.4365 + vtol_dgp + cvth_dgp'
 +   pvth0_dgp =  0
 +   lint_dgp  = '0.014u + cxl_dgp + clpc_dgp'  $ delta l (one side)
 +   ltol_dgp  = -0.008u
 +   xlint_dgp = 'lmtx_dgp*mc_gl_f - cnr_pc*(1-fixcnr)'
 +   wint_dgp  = '-0.01u + cxw_dgp + cwrx_dgp'  $ delta w (one side)
 +   wtol_dgp  = -0.015u
 +   xwint_dgp = 'ddgpwint*mc_gl_f - cnr_rx*(1-fixcnr)'
 +   xu0_dgp   = 'ddgpu0*mc_gl_f + cnr_dgp*(1-fixcnr)'
 +   u0_dgp    = '168 + 50*xu0_dgp + cu0_dgp' $ base mobility (cm**2/vsec)
 +   rdsw_dgp  = '200 + 76*dprdsw + crds_dgp' $ base series res (ohm-um)
 +   cgsl_dgp  = '315p + 45p*ddgpcgov'        $ g/s overlap cap at 0v (f/meter)
 +   cgdl_dgp  = '315p + 45p*ddgpcgov'        $ g/d overlap cap at 0v (f/meter)
 +   cgso_dgp  = 0                            $ g/s overlap cap offset (f/meter)
 +   cgdo_dgp  = 0                            $ g/d overlap cap offset (f/meter)
 +   rsh_dgp   = pcrsi                        $ s/d sheet resistance (ohms/sq)
 +   js_dgp    = 12u                          $ p+ area sat cur (a/meter**2)
 +   jsw_dgp   = 960f                         $ p+ sidewall sat cur (a/meter)
 +   n_dgp     = 1.1                          $ ideality
 +   cj_dgp    = '1.0m + 0.20m*ddgpcj'        $ p+ diode cap (f/meter**2)
 +   pb_dgp    = 0.556                        $ voltage dependence
 +   mj_dgp    = 0.31
 +   cjsw_dgp  = '45p + 15.8p*ddgpcjsw'       $ p+ sti sidewall cap (f/meter)
 +   pbsw_dgp  = 1.0                          $ voltage dependence
 +   mjsw_dgp  = 0.001
 +   cjsg_dgp  = '300p + 60p*ddgpcjsg'        $ p+ gate sidewall cap (f/meter)
 +   pbsg_dgp  = 1.16                         $ voltage dependence
 +   mjsg_dgp  = 0.75
 *
 *                                              3.3v dgnfet
 *
 +   xn33vsat  = agauss('cnr_n33*(1-fixcnr)',mc_std,3)
 +   dn33vsat  = xn33vsat
 +   xn33u0    = agauss(0,mc_std,3)
 +   dn33u0    = xn33u0
 +   xn33cgov  = agauss('-cnr_n33',mc_std,3)
 +   dn33cgov  = xn33cgov
 +   xn33cj    = agauss('-cnr_n33',mc_std,3)
 +   dn33cj    = xn33cj
 +   xn33cjsw  = agauss('-cnr_n33',mc_std,3)
 +   dn33cjsw  = xn33cjsw
 +   xn33cjsg  = agauss('-cnr_n33',mc_std,3)
 +   dn33cjsg  = xn33cjsg
 +   xnoi_n33  = agauss('-cnr_noin',mc_std,3)
 +   dnoi_n33  = xnoi_n33
 *
 *                                            $ fixed corner adders
 +   cvth_n33  = 'fixcnr * skewfix(0.4514,0.3615,0.5399,cnr_n33)'
 +   cxl_n33   = 'fixcnr * skewfix(6.5e-8,7.40e-8,5.449e-8,cnr_n33)'
 +   clpc_n33  = 'fixcnr * skewfix(6.5e-8,7.311e-8,5.693e-8,cnr_pc)'
 +   cxw_n33   = 'fixcnr * skewfix(0e-8,-1.5e-8,1.5e-8,cnr_n33)'
 +   cwrx_n33  = 'fixcnr * skewfix(0e-8,-1.5e-8,1.5e-8,cnr_rx)'
 +   cu0_n33   = 'fixcnr * skewfix(380,425.6,334.4,cnr_n33)'
 +   crds_n33  = 'fixcnr * skewfix(102,40.8,163.2,cnr_n33)'
 *
 *                                            $ gate oxide thickness (meter)
 +   toxe_n33  = '5.9n + 0.50n*dthkox'
 +   toxp_n33  = '5.6n + 0.50n*dthkox'
 *                                            $ base threshold voltage (v)
 +   vtol_n33  = '0.06*(dn33vth0*mc_gl_f - cnr_n33*(1-fixcnr))'
 +   vth0_n33  = '0.4514 + vtol_n33 + cvth_n33'
 +   pvth0_n33 =  0
 +   vsat_n33  = '7.32e4 + 7.4e2*dn33vsat'    $ saturation velocity (m/sec)
 +   lint_n33  = '0.0325u + cxl_n33 + clpc_n33'  $ delta l (one side)
 +   ltol_n33  = -0.008u
 +   xlint_n33 = 'lmtx_n33*mc_gl_f - cnr_pc*(1-fixcnr)'
 +   wint_n33  = '0.0u + cxw_n33 + cwrx_n33'     $ delta w (one side)
 +   wtol_n33  = -0.015u
 +   xwint_n33 = 'dn33wint*mc_gl_f - cnr_rx*(1-fixcnr)'
 +   xu0_n33   = 'dn33u0*mc_gl_f + cnr_n33*(1-fixcnr)'
 +   u0_n33    = '380 + 94*xu0_n33 + cu0_n33' $ base mobility (cm**2/vsec)
 +   rdsw_n33  = '102 + 20.4*dnrdsw + crds_n33'  $ base series res (ohm-um)
 +   cgsl_n33  = '425p + 60p*dn33cgov'        $ g/s overlap cap at 0v (f/meter)
 +   cgdl_n33  = '425p + 60p*dn33cgov'        $ g/d overlap cap at 0v (f/meter)
 +   cgso_n33  = 0                            $ g/s overlap cap offset (f/meter)
 +   cgdo_n33  = 0                            $ g/d overlap cap offset (f/meter)
 +   rsh_n33   = pcrsi                        $ s/d sheet resistance (ohms/sq)
 +   js_n33    = 4.0u                         $ n+ area sat cur (a/meter**2)
 +   jsw_n33   = 4.0p                         $ n+ sti sidewall sat cur (a/meter)
 +   n_n33     = 1.114                        $ ideality
 +   cj_n33    = '0.8m + 0.16m*dn33cj'        $ n+ diode cap (f/meter**2)
 +   pb_n33    = 0.752                        $ voltage dependence
 +   mj_n33    = 0.31
 +   cjsw_n33  = '28.56p + 10p*dn33cjsw'      $ n+ sti sidewall cap (f/meter)
 +   pbsw_n33  = 0.163                        $ voltage dependence
 +   mjsw_n33  = 0.599
 +   cjsg_n33  = '190p + 38p*dn33cjsg'        $ n+ gate sidewall cap (f/meter)
 +   pbsg_n33  = 1.1                          $ voltage dependence
 +   mjsg_n33  = 0.45
 *
 *                                              3.3v dgpfet
 *
 +   xp33u0    = agauss(0,mc_std,3)
 +   dp33u0    = xp33u0
 +   xp33cgov  = agauss('-cnr_p33',mc_std,3)
 +   dp33cgov  = xp33cgov
 +   xp33cj    = agauss('-cnr_p33',mc_std,3)
 +   dp33cj    = xp33cj
 +   xp33cjsw  = agauss('-cnr_p33',mc_std,3)
 +   dp33cjsw  = xp33cjsw
 +   xp33cjsg  = agauss('-cnr_p33',mc_std,3)
 +   dp33cjsg  = xp33cjsg
 +   xnoi_p33  = agauss('-cnr_noip',mc_std,3)
 +   dnoi_p33  = xnoi_p33
 *
 *                                            $ fixed corner adders
 +   cvth_p33  = 'fixcnr * skewfix(-0.4223,-0.3923,-0.4523,cnr_p33)'
 +   cxl_p33   = 'fixcnr * skewfix(1.1e-7,1.23e-7,0.97e-7,cnr_p33)'
 +   clpc_p33  = 'fixcnr * skewfix(1.1e-7,1.18e-7,1.02e-7,cnr_pc)'
 +   cxw_p33   = 'fixcnr * skewfix(2e-8,0.507e-8,3.5068e-8,cnr_p33)'
 +   cwrx_p33  = 'fixcnr * skewfix(2e-8,0.473e-8,3.4727e-8,cnr_rx)'
 +   cu0_p33   = 'fixcnr * skewfix(140,156.8,123.2,cnr_p33)'
 +   crds_p33  = 'fixcnr * skewfix(90,36,144,cnr_p33)'
 *
 *                                            $ gate oxide thickness (meter)
 +   toxe_p33  = '6.15n + 0.50n*dthkox'
 +   toxp_p33  = '5.65n + 0.50n*dthkox'
 *                                            $ base threshold voltage (v)
 +   vtol_p33  = '0.04*(dp33vth0*mc_gl_f + cnr_p33*(1-fixcnr))'
 +   vth0_p33  = '-0.4223 + vtol_p33 + cvth_p33'
 +   pvth0_p33 =  0
 +   lint_p33  = '0.055u + cxl_p33 + clpc_p33'   $ delta l (one side)
 +   ltol_p33  = -0.008u
 +   xlint_p33 = 'lmtx_p33*mc_gl_f - cnr_pc*(1-fixcnr)'
 +   wint_p33  = '-0.01u + cxw_p33 + cwrx_p33'   $ delta w (one side)
 +   wtol_p33  = -0.015u
 +   xwint_p33 = 'dp33wint*mc_gl_f - cnr_rx*(1-fixcnr)'
 +   xu0_p33   = 'dp33u0*mc_gl_f + cnr_p33*(1-fixcnr)'
 +   u0_p33    = '140 + 31*xu0_p33 + cu0_p33' $ base mobility (cm**2/vsec)
 +   rdsw_p33  = '90 + 20*dprdsw + crds_p33'  $ base series res (ohm-um)
 +   cgsl_p33  = '425p + 60p*dp33cgov'        $ g/s overlap cap at 0v (f/meter)
 +   cgdl_p33  = '425p + 60p*dp33cgov'        $ g/d overlap cap at 0v (f/meter)
 +   cgso_p33  = 0                            $ g/s overlap cap offset (f/meter)
 +   cgdo_p33  = 0                            $ g/d overlap cap offset (f/meter)
 +   rsh_p33   = pcrsi                        $ s/d sheet resistance (ohms/sq)
 +   js_p33    = 12u                          $ p+ area sat cur (a/meter**2)
 +   jsw_p33   = 960f                         $ p+ sidewall sat cur (a/meter)
 +   n_p33     = 1.1                          $ ideality
 +   cj_p33    = '0.8m + 0.16m*dp33cj'        $ p+ diode cap (f/meter**2)
 +   pb_p33    = 0.556                        $ voltage dependence
 +   mj_p33    = 0.26
 +   cjsw_p33  = '45p + 15.8p*dp33cjsw'       $ p+ sti sidewall cap (f/meter)
 +   pbsw_p33  = 1.0                          $ voltage dependence
 +   mjsw_p33  = 0.001
 +   cjsg_p33  = '155p + 31p*dp33cjsg'        $ p+ gate sidewall cap (f/meter)
 +   pbsg_p33  = 1.16                         $ voltage dependence
 +   mjsg_p33  = 0.46
 *
 *                                                   3.3v hvt nfet
 *
 +   xnhv33dl   = agauss('-cnr_nhv33',mc_std,3)    $ distributions
 +   dnhv33dl   = xnhv33dl
 +   xnhv33u0   = agauss(cnr_nhv33,mc_std,3)
 +   dnhv33u0   = xnhv33u0
 +   xnhv33cj   = agauss('-cnr_nhv33',mc_std,3)
 +   dnhv33cj   = xnhv33cj
 +   xnhv33cjsw = agauss('-cnr_nhv33',mc_std,3)
 +   dnhv33cjsw = xnhv33cjsw
 +   xnhv33cjsg = agauss('-cnr_nhv33',mc_std,3)
 +   dnhv33cjsg = xnhv33cjsg
 +   xnhv33fol1 = agauss('cnr_nhv33',mc_std,3)
 +   dnhv33fol1 = xnhv33fol1
 +   xnhv33fol2 = agauss('cnr_nhv33',mc_std,3)
 +   dnhv33fol2 = xnhv33fol2
 +   xnoi_nhv33 = agauss('-cnr_noin',mc_std,3)
 +   dnoi_nhv33 = xnoi_nhv33
 *
 +   tox_nhv33   = '5.20n + 0.50n*dthkox*(1-fixcnr) + dtoxo_nhvt33_fc'  $ gate oxide thickness (meter)
 +   vtol_nhv33  = '0.066*(dnhv33vth0*mc_gl_f - cnr_nhv33*(1-fixcnr))'
 +   vfb_nhv33   = '-0.879 + vtol_nhv33 + dvfbo_nhvt33_fc'              $ base threshold voltage (v)
 +   vfbl_nhv33  = '-0.05316 + dvfbl_nhvt33_fc'
 +   vfblw_nhv33 = '0.001 + dvfblw_nhvt33_fc'
 +   lint_nhv33  = '0.0325u + dlap_nhvt33_fc'                           $ delta l (one side)
 +   ltol_nhv33  = -0.008u
 +   xlint_nhv33 = 'lmtx_nhv33*mc_gl_f - cnr_pc*(1-fixcnr)'
 +   dl_nhv33    = '0 + 1.0e-8*dnhv33dl'
 +   lov_nhv33   = 'lint_nhv33 + 3.865e-8 + dl_nhv33 + dlov_nhvt33_fc'
 +   wint_nhv33  = '0.0u + dwot_nhvt33_fc'                              $ delta w (one side)
 +   wtol_nhv33  = -0.015u
 +   xwint_nhv33 = 'dnhv33wint*mc_gl_f - cnr_rx*(1-fixcnr)'
 +   uo_nhv33    = '0.0430 + 0.006*dnhv33u0 + duo_nhvt33_fc'            $ base mobility (m**2/vsec)
 +   rsw_nhv33   = '262 + 26.0*dnrdsw + drsw1_nhvt33_fc'                $ base series resistance (ohm-um)
 +   fol1_nhv33  = '0.2706 + 20.0m*dnhv33fol1 + dfol1_nhvt33_fc'        $ first order short channel roll-off and body effect
 +   fol2_nhv33  = '-0.01036 + 1.0m*dnhv33fol2'                         $ second order short channel roll-off and body effect
 *
 +   rsh_nhv33  = pcrsi                       $ s/d sheet resistance (ohms/sq)
 +   js_nhv33   = 4.0u                        $ n+ area sat cur (a/meter**2)
 +   jsw_nhv33  = 4.0p                        $ n+ sidewall sat cur (a/meter)
 +   n_nhv33    = 1.114                       $ ideality
 +   cj_nhv33   = '0.8m + 0.2m*dnhv33cj + dcjorbot_nhvt33_fc'    $ n+ diode cap (f/meter**2)
 +   pb_nhv33   = 0.752                       $ voltage dependence
 +   mj_nhv33   = 0.31
 +   cjsw_nhv33 = '65.0p + 16p*dnhv33cjsw + dcjorsti_nhvt33_fc'  $ n+ sti sidewall cap (f/meter)
 +   pbsw_nhv33 = 0.163                       $ voltage dependence
 +   mjsw_nhv33 = 0.05
 +   cjsg_nhv33 = '178p + 45p*dnhv33cjsg + dcjorgat_nhvt33_fc'   $ n+ gate sidewall cap (f/meter)
 +   pbsg_nhv33 = 1.1                         $ voltage dependence
 +   mjsg_nhv33 = 0.36
 *
 *                                                  3.3v hvt pfet
 *
 +   xphv33dl   = agauss('-cnr_phv33',mc_std,3)   $ distributions
 +   dphv33dl   = xphv33dl
 +   xphv33u0   = agauss(cnr_phv33,mc_std,3)
 +   dphv33u0   = xphv33u0
 +   xphv33cj   = agauss('-cnr_phv33',mc_std,3)
 +   dphv33cj   = xphv33cj
 +   xphv33cjsw = agauss('-cnr_phv33',mc_std,3)
 +   dphv33cjsw = xphv33cjsw
 +   xphv33cjsg = agauss('-cnr_phv33',mc_std,3)
 +   dphv33cjsg = xphv33cjsg
 +   xphv33fol1 = agauss('cnr_phv33',mc_std,3)
 +   dphv33fol1 = xphv33fol1
 +   xphv33fol2 = agauss('cnr_phv33',mc_std,3)
 +   dphv33fol2 = xphv33fol2
 +   xnoi_phv33 = agauss('-cnr_noip',mc_std,3)
 +   dnoi_phv33 = xnoi_phv33
 *
 +   tox_phv33   = '5.25n + 0.50n*dthkox*(1-fixcnr) + dtoxo_phvt33_fc' $ gate oxide thickness (meter)
 +   vtol_phv33  = '0.067*(dphv33vth0*mc_gl_f + cnr_phv33*(1-fixcnr))'
 +   vfb_phv33   = '-0.827 - vtol_phv33 + dvfbo_phvt33_fc'             $ base threshold voltage (v)
 +   vfbl_phv33  = '-0.02486 + dvfbl_phvt33_fc'
 +   vfblw_phv33 = '0 + dvfblw_phvt33_fc'
 +   lint_phv33  = '0.055u + dlap_phvt33_fc'                           $ delta l (one side)
 +   ltol_phv33  = -0.008u
 +   xlint_phv33 = 'lmtx_phv33*mc_gl_f - cnr_pc*(1-fixcnr)'
 +   dl_phv33    = '0 + 0.8e-8*dphv33dl'
 +   lov_phv33   = 'lint_phv33 + 1.45e-8 + dl_phv33 + dlov_phvt33_fc'
 +   wint_phv33  = '-0.01u + dwot_phvt33_fc'                           $ delta w (one side)
 +   wtol_phv33  = -0.015u
 +   xwint_phv33 = 'dphv33wint*mc_gl_f - cnr_rx*(1-fixcnr)'
 +   uo_phv33    = '0.0104 + 0.0014*dphv33u0 + duo_phvt33_fc'          $ base mobility (m**2/vsec)
 +   rsw_phv33   = '1008 + 100*dprdsw + drsw1_phvt33_fc'               $ base series resistance (ohm-um)
 +   fol1_phv33  = '0.1064 + 1.5m*dphv33fol1 + dfol1_phvt33_fc'        $ first order short channel roll-off and body effect
 +   fol2_phv33  = '0.02438 + 1.2m*dphv33fol2'                         $ second order short channel roll-off and body effect
 *
 +   rsh_phv33  = pcrsi                       $ s/d sheet resistance (ohms/sq)
 +   js_phv33   = 12u                         $ p+ area sat cur (a/meter**2)
 +   jsw_phv33  = 960f                        $ p+ sidewall sat cur (a/meter)
 +   n_phv33    = 1.1                         $ ideality
 +   cj_phv33   = '0.8m + 0.2m*dphv33cj + dcjorbot_phvt33_fc'   $ p+ diode cap (f/meter**2)
 +   pb_phv33   = 0.556                       $ voltage dependence
 +   mj_phv33   = 0.26
 +   cjsw_phv33 = '45p + 11.3p*dphv33cjsw + dcjorsti_phvt33_fc' $ p+ sti sidewall cap (f/meter)
 +   pbsw_phv33 = 0.5                         $ voltage dependence
 +   mjsw_phv33 = 0.05
 +   cjsg_phv33 = '155p + 38p*dphv33cjsg + dcjorgat_phvt33_fc'  $ p+ gate sidewall cap (f/meter)
 +   pbsg_phv33 = 1.16                        $ voltage dependence
 +   mjsg_phv33 = 0.36
 *
 *                                              zvt nfet
 *
 +   xznu0     = agauss(0,mc_std,3)
 +   dznu0     = xznu0
 +   xnoi_zn   = agauss('-cnr_noin',mc_std,3)
 +   dnoi_zn   = xnoi_zn
 *
 *                                            $ fixed corner adders
 +   cvth_zn   = 'fixcnr * skewfix(0.0065,-0.06168,0.07336,cnr_zn)'
 +   cxl_zn    = 'fixcnr * skewfix(3.0e-8,3.8e-8,2.2e-8,cnr_zn)'
 +   clpc_zn   = 'fixcnr * skewfix(3.0e-8,3.8e-8,2.2e-8,cnr_pc)'
 +   cxw_zn    = 'fixcnr * skewfix(2.5e-7,1.6e-7,3.4e-7,cnr_zn)'
 +   cwrx_zn   = 'fixcnr * skewfix(2.5e-7,1.6e-7,3.4e-7,cnr_rx)'
 +   cu0_zn    = 'fixcnr * skewfix(470,484.1,445.6,cnr_zn)'
 +   crds_zn   = 'fixcnr * skewfix(54,51.57,56.43,cnr_zn)'
 *
 *                                            $ gate oxide thickness (meter)
 +   toxe_zn   = '3.03n + 0.2n*dthnox'
 +   toxp_zn   = '2.65n + 0.15n*dthnox'
 *                                            $ base threshold voltage (v)
 +   vtol_zn   = '0.055*(dznvth0*mc_gl_f - cnr_zn*(1-fixcnr))'
 +   vth0_zn   = '0.0065 + vtol_zn + cvth_zn'
 +   pvth0_zn  =  0
 +   lint_zn   = '0.015u + cxl_zn + clpc_zn'  $ delta l (one side)
 +   ltol_zn   = -0.008u
 +   xlint_zn  = 'lmtx_zn*mc_gl_f - cnr_pc*(1-fixcnr)'
 +   wint_zn   = '0.125u + cxw_zn + cwrx_zn'  $ delta w (one side)
 +   wtol_zn   = -0.09u
 +   xwint_zn  = 'dznwint*mc_gl_f - cnr_rx*(1-fixcnr)'
 +   xu0_zn    = 'dznu0*mc_gl_f + cnr_zn*(1-fixcnr)'
 +   u0_zn     = '470 - 115*xu0_zn + cu0_zn'  $ base mobility (cm**2/vsec)
 +   rdsw_zn   = '54 + 10*dnrdsw + crds_zn'   $ base series res (ohm-um)
 +   cgsl_zn   = '435p + 65p*dncgov'          $ g/s overlap cap at 0v (f/meter)
 +   cgdl_zn   = '435p + 65p*dncgov'          $ g/d overlap cap at 0v (f/meter)
 +   cgso_zn   = 130.8p                       $ g/s overlap cap offset (f/meter)
 +   cgdo_zn   = 130.8p                       $ g/d overlap cap offset (f/meter)
 +   rsh_zn    = pcrsi                        $ s/d sheet resistance (ohms/sq)
 +   js_zn     = 0.4072u                      $ n+ area sat cur (a/meter**2)
 +   jsw_zn    = 188.6f                       $ n+ sidewall sat cur (a/meter)
 +   n_zn      = 1.12                         $ ideality
 +   cj_zn     = '0.30m + 0.20m*dncj'         $ n+ diode cap (f/meter**2)
 +   pb_zn     = 0.4445                       $ voltage dependence
 +   mj_zn     = 0.3073
 +   cjsw_zn   = 0                            $ n+ sti sidewall cap (f/meter)
 +   pbsw_zn   = 0.1                          $ voltage dependence
 +   mjsw_zn   = 0.1
 +   cjsg_zn   = '96.8p + 19.4p*dncjsg'       $ n+ gate sidewall cap (f/meter)
 +   pbsg_zn   = 0.201                        $ voltage dependence
 +   mjsg_zn   = 0.2604
 +   cta_zn    = 1.92m                        $ temperature parameters
 +   pta_zn    = 1.65m
 +   ctp_zn    = 4.56m
 +   ptp_zn    = 1.0m
 *
 *                                              zvt dgnfet
 *
 +   xzdgu0    = agauss(0,mc_std,3)
 +   dzdgu0    = xzdgu0
 +   xnoi_zdg  = agauss('-cnr_noin',mc_std,3)
 +   dnoi_zdg  = xnoi_zdg
 *
 *                                            $ fixed corner adders
 +   cvth_zdg  = 'fixcnr * skewfix(-0.105,-0.17193,-0.04724,cnr_zdg)'
 +   cxl_zdg   = 'fixcnr * skewfix(2.8e-8,3.6e-8,2.0e-8,cnr_zdg)'
 +   clpc_zdg  = 'fixcnr * skewfix(2.8e-8,3.6e-8,2.0e-8,cnr_pc)'
 +   cxw_zdg   = 'fixcnr * skewfix(0e-7,0.9e-7,-0.9e-7,cnr_zdg)'
 +   cwrx_zdg  = 'fixcnr * skewfix(0e-7,0.9e-7,-0.9e-7,cnr_rx)'
 +   cu0_zdg   = 'fixcnr * skewfix(420,442.5,395.9,cnr_zdg)'
 +   crds_zdg  = 'fixcnr * skewfix(79,75.445,82.555,cnr_zdg)'
 *
 *                                            $ gate oxide thickness (meter)
 +   toxe_zdg  = '5.9n + 0.40n*dthkox'
 +   toxp_zdg  = '5.54n + 0.40n*dthkox'
 *                                            $ base threshold voltage (v)
 +   vtol_zdg  = '0.045*(dzdgvth0*mc_gl_f - cnr_zdg*(1-fixcnr))'
 +   vth0_zdg  = '-0.118 + vtol_zdg + cvth_zdg'
 +   pvth0_zdg =  0
 +   lint_zdg  = '0.016u + cxl_zdg + clpc_zdg'  $ delta l (one side)
 +   ltol_zdg  = -0.008u
 +   xlint_zdg = 'lmtx_zdg*mc_gl_f - cnr_pc*(1-fixcnr)'
 +   wint_zdg  = '0.0u + cxw_zdg + cwrx_zdg'    $ delta w (one side)
 +   wtol_zdg  = -0.015u
 +   xwint_zdg = 'dzdgwint*mc_gl_f - cnr_rx*(1-fixcnr)'
 +   xu0_zdg   = 'dzdgu0*mc_gl_f + cnr_zdg*(1-fixcnr)'
 +   u0_zdg    = '420 - 84*xu0_zdg + cu0_zdg' $ base mobility (cm**2/vsec)
 +   rdsw_zdg  = '79 + 16*dnrdsw + crds_zdg'  $ base series res (ohm-um)
 +   cgsl_zdg  = '430p + 45p*ddgncgov'        $ g/s overlap cap at 0v (f/meter)
 +   cgdl_zdg  = '430p + 45p*ddgncgov'        $ g/d overlap cap at 0v (f/meter)
 +   cgso_zdg  = 0                            $ g/s overlap cap offset (f/meter)
 +   cgdo_zdg  = 0                            $ g/d overlap cap offset (f/meter)
 +   rsh_zdg   = pcrsi                        $ s/d sheet resistance (ohms/sq)
 +   js_zdg    = 0.4072u                      $ n+ area sat cur (a/meter**2)
 +   jsw_zdg   = 188.6f                       $ n+ sidewall sat cur (a/meter)
 +   n_zdg     = 1.12                         $ ideality
 +   cj_zdg    = '0.33m + 0.20m*ddgncj'       $ n+ diode cap (f/meter**2)
 +   pb_zdg    = 0.56                         $ voltage dependence
 +   mj_zdg    = 0.35
 +   cjsw_zdg  = 0                            $ n+ sti sidewall cap (f/meter)
 +   pbsw_zdg  = 0.1                          $ voltage dependence
 +   mjsw_zdg  = 0.1
 +   cjsg_zdg  = '120p + 24p*ddgncjsg'        $ n+ gate sidewall cap (f/meter)
 +   pbsg_zdg  = 0.5                          $ voltage dependence
 +   mjsg_zdg  = 0.35
 *
 *                                              nwell to substrate diode
 *
 +   xnwcj       = agauss(cnr_cap,mc_std,3)
 +   dnwcj       = xnwcj
 +   xnwcjsw     = agauss(cnr_cap,mc_std,3)
 +   dnwcjsw     = xnwcjsw
 +   xpwrs       = agauss(cnr_res,mc_std,3)
 +   dpwrs       = xpwrs
 *
 +   delnw       = 'ndelnw + tdelnw'          $ nw image
 +   js_nw       = 0.170u                     $ sat current (a/meter**2)
 +   jsw_nw      = 0.165p                     $ sidewall sat current (a/meter)
 +   n_nw        = 1.02                       $ ideality
 +   cj_nw       = '0.93m + 0.28m*dnwcj'      $ capacitance (f/meter**2)
 +   pb_nw       = 0.78                       $ voltage dependence
 +   mj_nw       = 0.34
 +   cjsw_nw     = '0.50n + 0.15n*dnwcjsw'    $ sidewall cap (f/meter)
 +   pbsw_nw     = 0.69                       $ voltage dependence
 +   mjsw_nw     = 0.34
 +   cta_nw      = 0.8m                       $ temperature parameters
 +   pta_nw      = 1.6m
 +   ctp_nw      = 1.1m
 +   ptp_nw      = 2.0m
 +   bd_nw       = 10.5
 +   lk1a_nw     = 0.79m                      $ diode leakage parameters
 +   lk3a_nw     = 14u
 +   lk1p_nw     = 0.83n
 +   lk3p_nw     = 0
 +   nwrs        = nwrsf                      $ nw sheet rho (ohm/sq)
 +   pwrs        = '260 + 110*dpwrs'          $ pw(sx) sheet rho (ohm/sq)
 *
 *                                              di diode
 *
 +   xistdi      = agauss(cnr_res,mc_std,3)
 +   distdi      = xistdi
 +   tdeldi      = '0.5*distdi'               $ sat current tolerance
 *
 +   dima        = 6.5                        $ mis-match coefficients
 +   dimw        = 0
 +   diml        = 0
 *
 *                                              pwell to n-isolation diode
 *
 +   xpwicj      = agauss(0,mc_std,3)
 +   dpwicj      = xpwicj
 +   xpwicjsw    = agauss(0,mc_std,3)
 +   dpwicjsw    = xpwicjsw
 *
 +   js_pwi      = 0.22u                      $ sat current (a/meter**2)
 +   jsw_pwi     = 0.35p                      $ sidewall sat cur (a/meter)
 +   n_pwi       = 1.04                       $ ideality
 +   cj_pwi      = '0.92m + 0.28m*dpwicj'     $ capacitance (f/meter**2)
 +   pb_pwi      = 0.78                       $ voltage dependence
 +   mj_pwi      = 0.35
 +   cjsw_pwi    = '0.92n + 0.28n*dpwicjsw'   $ sidewall cap (f/meter)
 +   pbsw_pwi    = 0.50                       $ voltage dependence
 +   mjsw_pwi    = 0.32
 +   cta_pwi     = 0.9m                       $ temperature parameters
 +   pta_pwi     = 2.0m
 +   ctp_pwi     = 1.8m
 +   ptp_pwi     = 1.3m
 +   bd_pwi      = 9.0
 +   lk1a_pwi    = 0.77m                      $ diode leakage parameters
 +   lk3a_pwi    = 0
 +   lk1p_pwi    = 1.7n
 +   lk3p_pwi    = 2p
 *
 *                                              pwell (bt) to t3 isolation diode
 *
 +   xpwt3cj     = agauss(0,mc_std,3)
 +   dpwt3cj     = xpwt3cj
 *
 +   js_pwt3     = 0.40u                      $ sat current (a/meter**2)
 +   jsw_pwt3    = 0.24p                      $ sidewall sat cur (a/meter)
 +   n_pwt3      = 1.0015                     $ ideality
 +   cj_pwt3     = '0.72m + 0.29m*dpwt3cj'    $ capacitance (f/meter**2)
 +   pb_pwt3     = 0.75                       $ voltage dependence
 +   mj_pwt3     = 0.35
 +   cta_pwt3    = 0.62m                      $ temperature parameters
 +   pta_pwt3    = 1.4m
 +   bd_pwt3     = 13.0
 +   lk1a_pwt3   = 0.011m                     $ diode leakage parameters
 +   lk3a_pwt3   = 0
 +   lk1p_pwt3   = 0.13n
 +   lk3p_pwt3   = 0
 *
 *                                              n-isolation to substrate diode
 *
 +   xpixcj      = agauss(0,mc_std,3)
 +   dpixcj      = xpixcj
 +   xpixcjsw    = agauss(0,mc_std,3)
 +   dpixcjsw    = xpixcjsw
 *
 +   js_pix      = 0.32u                      $ sat current (a/meter**2)
 +   jsw_pix     = 0.04p                      $ sidewall sat cur (a/meter)
 +   n_pix       = 1.03                       $ ideality
 +   cj_pix      = '0.25m + 0.08m*dpixcj'     $ capacitance (f/meter**2)
 +   pb_pix      = 0.76                       $ voltage dependence
 +   mj_pix      = 0.42
 +   cjsw_pix    = '0.03n + 0.02n*dpixcjsw'   $ sidewall cap (f/meter)
 +   pbsw_pix    = 0.75                       $ voltage dependence
 +   mjsw_pix    = 0.35
 +   cta_pix     = 1.3m                       $ temperature parameters
 +   pta_pix     = 2.2m
 +   ctp_pix     = 2.0m
 +   ptp_pix     = 0.5m
 +   bd_pix      = 10.0
 +   lk1a_pix    = 0.75m                      $ diode leakage parameters
 +   lk3a_pix    = 0
 +   lk1p_pix    = 20p
 +   lk3p_pix    = 0
 *
 *                                              t3 isolation to substrate diode
 *
 +   xt3xcj      = agauss(0,mc_std,3)
 +   dt3xcj      = xt3xcj
 +   xt3xcjsw    = agauss(0,mc_std,3)
 +   dt3xcjsw    = xt3xcjsw
 *
 +   js_t3x      = 0.62u                      $ sat current (a/meter**2)
 +   jsw_t3x     = 1.67p                      $ sidewall sat cur (a/meter)
 +   n_t3x       = 1.06                       $ ideality
 +   cj_t3x      = '0.20m + 0.08m*dt3xcj'     $ capacitance (f/meter**2)
 +   pb_t3x      = 0.70                       $ voltage dependence
 +   mj_t3x      = 0.40
 +   cjsw_t3x    = '2.35n + 0.95n*dt3xcjsw'   $ sidewall capacitance (f/meter)
 +   pbsw_t3x    = 0.75                       $ voltage dependence
 +   mjsw_t3x    = 0.40
 +   cta_t3x     = 1.8m                       $ temperature parameters
 +   pta_t3x     = 2.5m
 +   ctp_t3x     = 1.2m
 +   ptp_t3x     = 1.9m
 +   bd_t3x      = 10.5
 +   lk1a_t3x    = 0                          $ diode leakage parameters
 +   lk3a_t3x    = 0
 +   lk1p_t3x    = 0.1n
 +   lk3p_t3x    = 0
 *
 *                                              nmos varactor / pcdcaps
 *
 +   xnpcrs   = agauss(0,mc_std,3)            $ n+ poly rs distribution
 +   dnpcrs   = xnpcrs
 *
 +   nco_mv   = 12.3m                       
 +   co_mv    = 'nco_mv - 1.23m*dthnox'       $ unit capacitance (f/meter**2)
 +   nqs_mv   = 430u
 +   qs_mv    = 'nqs_mv - 65u*dnwrs'          $ nwell depletion region charge
 +   qp_mv    = '12.3m - 2.46m*dnpcrs'        $ gate depletion charge
 +   pon_mv   = 2.5m                          $ hole-to-electron density ratio
 +   vbi_mv   = 0.055                         $ built-in potential, gate and nw
 *
 +   nco_mvdg = 6.2m
 +   co_mvdg  = 'nco_mvdg - 0.62m*dthkox'     $ unit capacitance (f/meter**2)
 +   nqs_mvdg = 440u
 +   qs_mvdg  = 'nqs_mvdg - 66u*dnwrs'        $ nwell depletion region charge
 +   qp_mvdg  = '11m - 2.2m*dnpcrs'           $ gate depletion charge
 +   pon_mvdg = 5m                            $ hole-to-electron density ratio
 +   vbi_mvdg = 0.029                         $ built-in potential, gate and nw
 *
 +   emw      = 0                             $ additional metal wiring width
 *
 *                                              ha varactor
 *
 +   xazvar  = agauss('-cnr_cap',mc_std,3)
 +   dazvar  = xazvar
 +   xaxvar  = agauss(cnr_cap,mc_std,3)
 +   daxvar  = xaxvar
 +   xayvar  = agauss(cnr_cap,mc_std,3)
 +   dayvar  = xayvar
 +   xnbnsr  = agauss('-cnr_cap',mc_std,3)
 +   dnbnsr  = xnbnsr
 +   xnscja  = agauss('-cnr_cap',mc_std,3)
 +   dnscja  = xnscja
 +   xnscjp  = agauss('-cnr_cap',mc_std,3)
 +   dnscjp  = xnscjp
 *                                              sheet resistivities
 +   nrnw    = '270p + 65p*dnwrs'             $ vertical nwell (ohm-meter**2)
 +   nbnsr   = '120 + 30*dnbnsr'              $ buried subcollector (ohm/sq)
 *
 +   azvar   = '0.30*dazvar'                  $ doping variations
 +   axvar   = '0.21*daxvar'
 +   ayvar   = '0.50*dayvar'
 *
 +   nncahav = 2.40m                          $ unit area cap (f/meter**2)
 +   nncphav = 0.19n                          $ unit peri cap (f/meter)
 *
 *                                              ns to substrate (w/ rn) diode
 *
 +   js_rns     = 0.3u                        $ sat current (a/meter**2)
 +   jsw_rns    = 0.54p                       $ sidewall sat current (a/meter)
 +   n_rns      = 1.03                        $ ideality
 +   ncjsa      = '0.27m + 0.15m*dnscja'      $ capacitance (f/meter**2)
 +   pb_rns     = 0.75                        $ voltage dependence
 +   mj_rns     = 0.45
 +   ncjsp      = '1.45n + 0.2n*dnscjp'       $ sidewall cap (f/meter)
 +   pbsw_rns   = 0.70                        $ voltage dependence
 +   mjsw_rns   = 0.40
 +   cta_rns    = 1.8m                        $ temperature parameters
 +   pta_rns    = 2.9m
 +   ctp_rns    = 0.9m
 +   ptp_rns    = 1.8m
 +   bd_rns     = 8.5
 *
 *                                              schottky barrier diode
 *
 +   xsbdisat = agauss('-cnr_res',mc_std,3)
 +   dsbdisat = xsbdisat
 +   xsbdlk   = agauss('-cnr_res',mc_std,3)
 +   dsbdlk   = xsbdlk
 +   xsbdcj   = agauss('-cnr_cap',mc_std,3)
 +   dsbdcj   = xsbdcj
 *
 +   delbnn   =  -0.4975u                     $ bn photo + p+ outdiffusion
 +   delbn    = 'delbnn + 0.05u*ddlbn'
 *
 +   sbdia    = '2.453*exp(1.80*dsbdisat)'    $ area saturation current (a/meter**2)
 +   sbdinf   = '-0.09*exp(1.80*dsbdisat)'    $ nf sat current correction factor
 +   sbdlk    = 'exp(24.866 + 5.17*dsbdlk)'   $ reverse leakage current
 *
 +   nnsbdcj  = 0.7737m                       $ sbd cj area (f/meter**2)
 +   nsbdcj   = 'nnsbdcj + 0.19m*dsbdcj'
 *
 +   nnsbdcjp = 0.6259n                       $ sbd cj peri (f/meter)
 +   nsbdcjp  = 'nnsbdcjp + 0.25n*dsbdcj'
 *
 +   nvepi    = '0.6n - 0.3n*dsbdisat'        $ vertical epi res (ohm-meter**2)
 *
 *                                              beol area cap (f/meter**2)
 *
 +   xpcap   = agauss(0,mc_std,3)
 +   dpcap   = xpcap
 +   tpcap   = '1.0 + 0.20*dpcap'             $ extracted wiring cap tolerance
 *
 *                                              nitride mim capacitors
 *
 +   xcmima   = agauss(cnr_cap,mc_std,3)
 +   dcmima   = xcmima
 +   xcmimp   = agauss(cnr_cap,mc_std,3)
 +   dcmimp   = xcmimp
 +   xcmimha  = agauss(cnr_cap,mc_std,3)
 +   dcmimha  = xcmimha
 +   xcmimhp  = agauss(cnr_cap,mc_std,3)
 +   dcmimhp  = xcmimhp
 +   xcdlmimp = agauss(cnr_cap,mc_std,3)
 +   dcdlmimp = xcdlmimp
 +   xistqy   = agauss(0,mc_std,3)
 +   distqy   = xistqy
 +   xisthy   = agauss(0,mc_std,3)
 +   disthy   = xisthy
 +   xistkt   = agauss(0,mc_std,3)
 +   distkt   = xistkt
 +   xftrs    = agauss('-cnr_cap',mc_std,3)
 +   dftrs    = xftrs
 +   xqyt     = agauss(cnr_cap,mc_std,3)
 +   dqyt     = xqyt
 +   xhyt     = agauss(cnr_cap,mc_std,3)
 +   dhyt     = xhyt
 +   xktt     = agauss(cnr_cap,mc_std,3)
 +   dktt     = xktt
 *
 +   ncmima   =  2.05m                        $ mim qx cap area (f/meter**2)
 +   cmima    = 'ncmima + 0.205m*dcmima'
 +   ncmimp   =  0.157n                       $ mim qx cap peri (f/meter)
 +   cmimp    = 'ncmimp + 0.079n*dcmimp'
[...]
    XTID =      3 
    LMLT =      1 
    WMLT =      1 
    LINT =      0 
    LL =      0 
    LLC =      0 
    LLN =      1 
    LW =      0 
    LWC =      0 
    LWN =      1 
    LWL =      0 
    LWLC =      0 
    LMIN =      0 
    LMAX =      1 
    WINT =      0 
    WL =      0 
    WLC =      0 
    WLN =      1 
    WW =      0 
    WWC =      0 
    WWN =      1 
    WWL =      0 
    WWLC =      0 
    WMIN =      0 
    WMAX =      1 
    NOIA = 9.1e+41 
    NOIB =  5e+23 
    NOIC =   1.75 
    EM = 4.1e+07 
    EF =   0.95 
    AF =      1 
    KF =      0 
    TRS =      0 
    TRD =      0 
    TEMPMOD  =      0 
    LAMBDA   =      0 
    VTL      =  2e+05 m/s
    LC       =  5e-09 
    XN       =      3 
    LLAMBDA  =      0 
    LVTL     =      0 
    LXN      =      0 
    WLAMBDA  =      0 
    WVTL     =      0 
    WXN      =      0 
    PLAMBDA  =      0 
    PVTL     =      0 
    PXN      =      0 
    RNOIA    =  0.577 
    RNOIB    = 0.5164 
    SAREF(SA0) =  3e-06 m
    SBREF(SB0) =  3e-06 m
    WLOD     =      0 m
    KU0      = -2e-08 1/m
    KVSAT    =   -0.3 
    KVTH0    =  2e-08 m
    TKU0     =      0 
    LLODKU0  =      1 
    WLODKU0  =      1 
    LLODVTH  =      1 
    WLODVTH  =      1 
    LKU0     = -2e-08 
    WKU0     = -5e-08 
    PKU0     =      0 
    LKVTH0   = 8.5e-08 
    WKVTH0   =  2e-07 
    PKVTH0   =      0 
    STK2     =      0 
    LODK2    =      1 
    STETA0   =      0 
    LODETA0  =      1 
    LXRCRG1  =      0 
    WXRCRG1  =      0 
    PXRCRG1  =      0 
    LXRCRG2  =      0 
    WXRCRG2  =      0 
    PXRCRG2  =      0 
 

    *** UCB's BSIM4.4.0 new diode model is activated. ***
    *** UCB's Diode Model Parameters ***

    JTSS         =      0 
    JTSSWS       =      0 
    JTSSWGS      =      0 
    JTSD         =      0 
    JTSSWD       =      0 
    JTSSWGD      =      0 
    NJTS         =     20 
    NJTSSW       =     20 
    NJTSSWG      =     20 
    XTSS         =   0.02 
    XTSSWS       =   0.02 
    XTSSWGS      =   0.02 
    XTSD         =   0.02 
    XTSSWD       =   0.02 
    XTSSWGD      =   0.02 
    TNJTS        =      0 
    TNJTSSW      =      0 
    TNJTSSWG     =      0 
    VFBSDOFF     =      0 
    LVFBSDOFF    =      0 
    WVFBSDOFF    =      0 
    PVFBSDOFF    =      0 
    LINTNOI      =      0 
    VTSS         =     10 
    VTSD         =     10 
    VTSSWS       =     10 
    VTSSWD       =     10 
    VTSSWGS      =     10 
    VTSSWGD      =     10 
    TTDIOMOD     =      1 
 

 
Model Name: lppch  

 BSIM4 Model (Level 54)

    MOBMOD = 0
    BINUNIT = 1
    PARAMCHK = 1
    CAPMOD = 2
    DIOMOD = 1
    RDSMOD = 1
    TRNQSMOD = 0
    ACNQSMOD = 0
    RBODYMOD = 0
    RGATEMOD = 0
    PERMOD = 1
    GEOMOD = 0
    RGEOMOD = 1
    FNOIMOD = 1
    TNOIMOD = 0
    IGCMOD = 1
    IGBMOD = 1
    STIMOD = 1
    VBFWDMOD = 0
    VERSION =    4.4 
    TOXREF = 3.23e-09 
    TOXE = 3.23e-09 
    TOXP = 2.864e-09 
    TOXM = 3.12e-09 
    DTOX =      0 
    EPSROX =    3.9 
    CDSC = 0.0007852 
    CDSCB = 0.0008325 
    CDSCD =      0 
    CIT = 0.001358 
    NFACTOR =    1.1 
    XJ = 1.5e-07 
    VSAT = 2.259e+05 
    A0 = 2.665e-15 
    AGS = -0.00138 
    A1 =      0 
    A2 =      1 
    AT = 3.137e+04 
    KETA = 0.001312 
    NSUB =  6e+16 
    NDEP = 4.5e+17 
    NSD =  1e+20 
    NGATE = 1.2e+20 
    GAMMA1 =      0 
    GAMMA2 =      0 
    VBX =      0 
    VBM =     -3 
    XT = 1.55e-07 
    K1 = 0.4644 
    KT1 = -0.1959 
    KT1L = -1.928e-09 
    KT2 = -0.0937 
    K2 =  -0.05 
    K3 =  27.36 
    K3B =  48.65 
    LPE0 = 4.7e-08 
    LPEB = 5.383e-08 
    DVTP0 =  1e-09 
    DVTP1 =      0 
    W0 = 3.388e-06 
    DVT0 = 8.266e-09 
    DVT1 = 0.5129 
    DVT2 = -0.0001678 
    DVT0W = 1.315e-09 
    DVT1W = 2.208e+04 
    DVT2W = -0.032 
    DROUT = 0.07505 
    DSUB = 0.2358 
    VTH0 = -0.4577 
    EU =      1 
    UA = 1.796e-09 
    UA1 = 1.834e-09 
    UB = 3.932e-19 
    UB1 = -3.083e-18 
    UC =      0 
    UC1 =      0 
    U0 =  114.8 
    UTE = -0.7622 
    VOFF = -0.1562 
    VOFFL = -1.575e-09 
    MINV = -0.2565 
    FPROUT = 0.9267 
    PDITS = 0.1321 
    PDITSD = 0.8218 
    PDITSL = 1.074e+05 
    DELTA = 0.01511 
    RDSW =    200 
    RDSWMIN =      0 
    RDWMIN =  3.099 
    RSWMIN =  3.038 
    RDW =    162 
    RSW =    162 
    PRWG = 0.004431 
    PRWB =    0.1 
    PRT =  55.98 
    ETA0 =  0.009 
    ETAB = -0.01659 
    PCLM = 0.8658 
    PDIBLC1 = 3.9e-07 
    PDIBLC2 = 0.01062 
    PDIBLCB = 0.09527 
    PSCBE1 = 4.24e+08 
    PSCBE2 =  1e-05 
    PVAG = 2.22e-15 
    WR =      1 
    DWG =      0 
    DWB = 8.424e-11 
    XW = -4e-08 
    XWREF = -4e-08 
    XL = -2.8e-08 
    XLREF = -2.8e-08 
    B0 = 1.3e-05 
    B1 = 1.858e-05 
    ALPHA0 =  1e-12 
    ALPHA1 = 0.00355 
    AGIDL = 5.9e-09 
    BGIDL = 1.738e+09 
    CGIDL =      1 
    PHIN =      0 
    EGIDL =   0.55 
    AIGC = 0.006931 
    BIGC = 0.0001684 
    CIGC = -0.016 
    AIGSD = 0.006931 
    BIGSD = 0.000405 
    CIGSD = 0.000898 
    AIGBACC = 0.01153 
    BIGBACC = 0.00131 
    CIGBACC = -0.0001 
    AIGBINV = 0.00809 
    BIGBINV = 0.0007038 
    CIGBINV = 0.01089 
    NIGC =  2.781 
    NIGBINV =  3.162 
    NIGBACC =  2.355 
    NTOX =      1 
    EIGBINV =   1.48 
    PIGCD =   3.36 
    POXEDGE =      1 
    XRCRG1 =  2.532 
    TNOIA =    1.5 
    TNOIB =    3.5 
    NTNOI =  1.653 
    XRCRG2 =    205 
    BETA0 =     10 
    IJTHDFWD =    0.1 
    IJTHSFWD =    0.1 
    IJTHDREV =    0.1 
    IJTHSREV =    0.1 
    XJBVD =      1 
    XJBVS =      1 
    BVD =   10.5 
    BVS =   10.5 
    VFB =     -1 
    GBMIN =  1e-12 
    RBDB =  1e+09 
    RBPB =     50 
    RBSB =  1e+09 
    RBPS =    100 
    RBPD =    100 
    CGSL = 3.1e-10 
    CGDL = 3.1e-10 
    CKAPPAS =  5.902 
    CKAPPAD =  5.902 
    CF =      0 
    CLC =  1e-07 
    CLE =    0.6 
    DWC =      0 
    DLC = 1.4e-08 
    DLCIG = 2.14e-09 
    DWJ =      0 
    VFBCV =     -1 
    ACDE =    0.4 
    MOIN =   8.97 
    NOFF =   2.27 
    VOFFCV = -0.0969 
    DMCG = 2.3e-07 
    DMCI = 3.2e-07 
    DMDG =      0 
    DMCGT =      0 
    XGW = 4.3e-07 
    XGL = -2.8e-08 
    RSHG =      7 
    NGCON =      1 
    TCJ =  0.001 
    TPB = 0.0011 
    TCJSW = 0.0025 
    TPBSW =      0 
    TCJSWG = 0.0025 
    TPBSWG =      0 
    SK0 =      0 
    SK1 =      0 
    SK2 =      0 
    SL =  2e-06 
    SW =  2e-06 
    K =      0 
    LUA = -7.55e-11 
    WVTH0 =  0.022 
    WUA = -7.211e-11 
    PNFACTOR = -0.015 
    PVTH0 = -0.00295 
    PU0 =   0.37 
    TNOM =  298.1 
    CGSO =      0 
    CGDO =      0 
    CGBO = 1.706e-11 
    XPART =      0 
    RSH =      7 
    JSS =  9e-08 
    JSWS = 2.7e-14 
    JSWGS = 2.7e-14 
    PBS =   0.65 
    MJS =   0.41 
    PBSWS =      1 
    MJSWS =   0.01 
    CJS = 0.00125 
    CJSWS =  5e-11 
    NJS =  1.006 
    PBSWGS =   1.16 
    MJSWGS =  0.574 
    CJSWGS = 4.94e-10 
    XTIS =      3 
    JSD =  9e-08 
    JSWD = 2.7e-14 
    JSWGD = 2.7e-14 
    PBD =   0.65 
    MJD =   0.41 
    PBSWD =      1 
    MJSWD =   0.01 
    CJD = 0.00125 
    CJSWD =  5e-11 
    NJD =  1.006 
    PBSWGD =   1.16 
    MJSWGD =  0.574 
    CJSWGD = 4.94e-10 
    XTID =      3 
    LMLT =      1 
    WMLT =      1 
    LINT = -4.2e-08 
    LL = 1.45e-16 
    LLC =      0 
    LLN =    1.2 
    LW = -4e-15 
    LWC =      0 
    LWN =      1 
    LWL =      0 
    LWLC =      0 
    LMIN =      0 
    LMAX =      1 
    WINT =  3e-08 
    WL =      0 
    WLC =      0 
    WLN =      1 
    WW = -2.5e-16 
    WWC =      0 
    WWN =    1.2 
    WWL =      0 
    WWLC =      0 
    WMIN =      0 
    WMAX =      1 
    NOIA =  3e+42 
    NOIB = 1.6e+27 
    NOIC = 2.1e+08 
    EM = 4.1e+07 
    EF =   1.15 
    AF =      1 
    KF =      0 
    TRS =      0 
    TRD =      0 
    TEMPMOD  =      0 
    LAMBDA   =      0 
    VTL      =  2e+05 m/s
    LC       =  5e-09 
    XN       =      3 
    LLAMBDA  =      0 
    LVTL     =      0 
    LXN      =      0 
    WLAMBDA  =      0 
    WVTL     =      0 
    WXN      =      0 
    PLAMBDA  =      0 
    PVTL     =      0 
    PXN      =      0 
    RNOIA    =  0.577 
    RNOIB    = 0.5164 
    SAREF(SA0) =  3e-06 m
    SBREF(SB0) =  3e-06 m
    WLOD     =      0 m
    KU0      = 1.7e-07 1/m
    KVSAT    =     -1 
    KVTH0    =      0 m
    TKU0     =      0 
    LLODKU0  =      1 
    WLODKU0  =      1 
    LLODVTH  =      1 
    WLODVTH  =      1 
    LKU0     = 1.9e-07 
    WKU0     = 2.8e-06 
    PKU0     =      0 
    LKVTH0   =      0 
    WKVTH0   = -1.84e-07 
    PKVTH0   =      0 
    STK2     =  4e-09 
    LODK2    =      1 
    STETA0   =      0 
    LODETA0  =      1 
    LXRCRG1  =      0 
    WXRCRG1  =      0 
    PXRCRG1  =      0 
    LXRCRG2  =      0 
    WXRCRG2  =      0 
    PXRCRG2  =      0 
 

    *** UCB's BSIM4.4.0 new diode model is activated. ***
    *** UCB's Diode Model Parameters ***

    JTSS         =      0 
    JTSSWS       =      0 
    JTSSWGS      =      0 
    JTSD         =      0 
    JTSSWD       =      0 
    JTSSWGD      =      0 
    NJTS         =     20 
    NJTSSW       =     20 
    NJTSSWG      =     20 
    XTSS         =   0.02 
    XTSSWS       =   0.02 
    XTSSWGS      =   0.02 
    XTSD         =   0.02 
    XTSSWD       =   0.02 
    XTSSWGD      =   0.02 
    TNJTS        =      0 
    TNJTSSW      =      0 
    TNJTSSWG     =      0 
    VFBSDOFF     =      0 
    LVFBSDOFF    =      0 
    WVFBSDOFF    =      0 
    PVFBSDOFF    =      0 
    LINTNOI      =      0 
    VTSS         =     10 
    VTSD         =     10 
    VTSSWS       =     10 
    VTSSWD       =     10 
    VTSSWGS      =     10 
    VTSSWGD      =     10 
    TTDIOMOD     =      1 
 

 
Model Name: lppch  

 BSIM4 Model (Level 54)

    MOBMOD = 0
    BINUNIT = 1
    PARAMCHK = 1
    CAPMOD = 2
    DIOMOD = 1
    RDSMOD = 1
    TRNQSMOD = 0
    ACNQSMOD = 0
    RBODYMOD = 0
    RGATEMOD = 0
    PERMOD = 1
    GEOMOD = 0
    RGEOMOD = 1
    FNOIMOD = 1
    TNOIMOD = 0
    IGCMOD = 1
    IGBMOD = 1
    STIMOD = 1
    VBFWDMOD = 0
    VERSION =    4.4 
    TOXREF = 3.23e-09 
    TOXE = 3.23e-09 
    TOXP = 2.864e-09 
    TOXM = 3.12e-09 
    DTOX =      0 
    EPSROX =    3.9 
    CDSC = 0.0007852 
    CDSCB = 0.0008325 
    CDSCD =      0 
    CIT = 0.001358 
    NFACTOR =    1.1 
    XJ = 1.5e-07 
    VSAT = 2.259e+05 
    A0 = 2.665e-15 
    AGS = -0.00138 
    A1 =      0 
    A2 =      1 
    AT = 3.137e+04 
    KETA = 0.001312 
    NSUB =  6e+16 
    NDEP = 4.5e+17 
    NSD =  1e+20 
    NGATE = 1.2e+20 
    GAMMA1 =      0 
    GAMMA2 =      0 
    VBX =      0 
    VBM =     -3 
    XT = 1.55e-07 
    K1 = 0.4644 
    KT1 = -0.1959 
    KT1L = -1.928e-09 
    KT2 = -0.0937 
    K2 =  -0.05 
    K3 =  27.36 
    K3B =  48.65 
    LPE0 = 4.7e-08 
    LPEB = 5.383e-08 
    DVTP0 =  1e-09 
    DVTP1 =      0 
    W0 = 3.388e-06 
    DVT0 = 8.266e-09 
    DVT1 = 0.5129 
    DVT2 = -0.0001678 
    DVT0W = 1.315e-09 
    DVT1W = 2.208e+04 
    DVT2W = -0.032 
    DROUT = 0.07505 
    DSUB = 0.2358 
    VTH0 = -0.4577 
    EU =      1 
    UA = 1.796e-09 
    UA1 = 1.834e-09 
    UB = 3.932e-19 
    UB1 = -3.083e-18 
    UC =      0 
    UC1 =      0 
    U0 =  114.8 
    UTE = -0.7622 
    VOFF = -0.1562 
    VOFFL = -1.575e-09 
    MINV = -0.2565 
    FPROUT = 0.9267 
    PDITS = 0.1321 
    PDITSD = 0.8218 
    PDITSL = 1.074e+05 
    DELTA = 0.01511 
    RDSW =    200 
    RDSWMIN =      0 
    RDWMIN =  3.099 
    RSWMIN =  3.038 
    RDW =    162 
    RSW =    162 
    PRWG = 0.004431 
    PRWB =    0.1 
    PRT =  55.98 
    ETA0 =  0.009 
    ETAB = -0.01659 
    PCLM = 0.8658 
    PDIBLC1 = 3.9e-07 
    PDIBLC2 = 0.01062 
    PDIBLCB = 0.09527 
    PSCBE1 = 4.24e+08 
    PSCBE2 =  1e-05 
    PVAG = 2.22e-15 
    WR =      1 
    DWG =      0 
    DWB = 8.424e-11 
    XW = -4e-08 
    XWREF = -4e-08 
    XL = -2.8e-08 
    XLREF = -2.8e-08 
    B0 = 1.3e-05 
    B1 = 1.858e-05 
    ALPHA0 =  1e-12 
    ALPHA1 = 0.00355 
    AGIDL = 5.9e-09 
    BGIDL = 1.738e+09 
    CGIDL =      1 
    PHIN =      0 
    EGIDL =   0.55 
    AIGC = 0.006931 
    BIGC = 0.0001684 
    CIGC = -0.016 
    AIGSD = 0.006931 
    BIGSD = 0.000405 
    CIGSD = 0.000898 
    AIGBACC = 0.01153 
    BIGBACC = 0.00131 
    CIGBACC = -0.0001 
    AIGBINV = 0.00809 
    BIGBINV = 0.0007038 
    CIGBINV = 0.01089 
    NIGC =  2.781 
    NIGBINV =  3.162 
    NIGBACC =  2.355 
    NTOX =      1 
    EIGBINV =   1.48 
    PIGCD =   3.36 
    POXEDGE =      1 
    XRCRG1 =  2.532 
    TNOIA =    1.5 
    TNOIB =    3.5 
    NTNOI =  1.653 
    XRCRG2 =    205 
    BETA0 =     10 
    IJTHDFWD =    0.1 
    IJTHSFWD =    0.1 
    IJTHDREV =    0.1 
    IJTHSREV =    0.1 
    XJBVD =      1 
    XJBVS =      1 
    BVD =   10.5 
    BVS =   10.5 
    VFB =     -1 
    GBMIN =  1e-12 
    RBDB =  1e+09 
    RBPB =     50 
    RBSB =  1e+09 
    RBPS =    100 
    RBPD =    100 
    CGSL = 3.1e-10 
    CGDL = 3.1e-10 
    CKAPPAS =  5.902 
    CKAPPAD =  5.902 
    CF =      0 
    CLC =  1e-07 
    CLE =    0.6 
    DWC =      0 
    DLC = 1.4e-08 
    DLCIG = 2.14e-09 
    DWJ =      0 
    VFBCV =     -1 
    ACDE =    0.4 
    MOIN =   8.97 
    NOFF =   2.27 
    VOFFCV = -0.0969 
    DMCG = 2.3e-07 
    DMCI = 3.2e-07 
    DMDG =      0 
    DMCGT =      0 
    XGW = 4.3e-07 
    XGL = -2.8e-08 
    RSHG =      7 
    NGCON =      1 
    TCJ =  0.001 
    TPB = 0.0011 
    TCJSW = 0.0025 
    TPBSW =      0 
    TCJSWG = 0.0025 
    TPBSWG =      0 
    SK0 =      0 
    SK1 =      0 
    SK2 =      0 
    SL =  2e-06 
    SW =  2e-06 
    K =      0 
    LUA = -7.55e-11 
    WVTH0 =  0.022 
    WUA = -7.211e-11 
    PNFACTOR = -0.015 
    PVTH0 = -0.00295 
    PU0 =   0.37 
    TNOM =  298.1 
    CGSO =      0 
    CGDO =      0 
    CGBO = 1.706e-11 
    XPART =      0 
    RSH =      7 
    JSS =  9e-08 
    JSWS = 2.7e-14 
    JSWGS = 2.7e-14 
    PBS =   0.65 
    MJS =   0.41 
    PBSWS =      1 
    MJSWS =   0.01 
    CJS = 0.00125 
    CJSWS =  5e-11 
    NJS =  1.006 
    PBSWGS =   1.16 
    MJSWGS =  0.574 
    CJSWGS = 4.94e-10 
    XTIS =      3 
    JSD =  9e-08 
    JSWD = 2.7e-14 
    JSWGD = 2.7e-14 
    PBD =   0.65 
    MJD =   0.41 
    PBSWD =      1 
    MJSWD =   0.01 
    CJD = 0.00125 
    CJSWD =  5e-11 
    NJD =  1.006 
    PBSWGD =   1.16 
    MJSWGD =  0.574 
    CJSWGD = 4.94e-10 
    XTID =      3 
    LMLT =      1 
    WMLT =      1 
    LINT = -4.2e-08 
    LL = 1.45e-16 
    LLC =      0 
    LLN =    1.2 
    LW = -4e-15 
    LWC =      0 
    LWN =      1 
    LWL =      0 
    LWLC =      0 
    LMIN =      0 
    LMAX =      1 
    WINT =  3e-08 
    WL =      0 
    WLC =      0 
    WLN =      1 
    WW = -2.5e-16 
    WWC =      0 
    WWN =    1.2 
    WWL =      0 
    WWLC =      0 
    WMIN =      0 
    WMAX =      1 
    NOIA =  3e+42 
    NOIB = 1.6e+27 
    NOIC = 2.1e+08 
    EM = 4.1e+07 
    EF =   1.15 
    AF =      1 
    KF =      0 
    TRS =      0 
    TRD =      0 
    TEMPMOD  =      0 
    LAMBDA   =      0 
    VTL      =  2e+05 m/s
    LC       =  5e-09 
    XN       =      3 
    LLAMBDA  =      0 
    LVTL     =      0 
    LXN      =      0 
    WLAMBDA  =      0 
    WVTL     =      0 
    WXN      =      0 
    PLAMBDA  =      0 
    PVTL     =      0 
    PXN      =      0 
    RNOIA    =  0.577 
    RNOIB    = 0.5164 
    SAREF(SA0) =  3e-06 m
    SBREF(SB0) =  3e-06 m
    WLOD     =      0 m
    KU0      = 1.7e-07 1/m
    KVSAT    =     -1 
    KVTH0    =      0 m
    TKU0     =      0 
    LLODKU0  =      1 
    WLODKU0  =      1 
    LLODVTH  =      1 
    WLODVTH  =      1 
    LKU0     = 1.9e-07 
    WKU0     = 2.8e-06 
    PKU0     =      0 
    LKVTH0   =      0 
    WKVTH0   = -1.84e-07 
    PKVTH0   =      0 
    STK2     =  4e-09 
    LODK2    =      1 
    STETA0   =      0 
    LODETA0  =      1 
    LXRCRG1  =      0 
    WXRCRG1  =      0 
    PXRCRG1  =      0 
    LXRCRG2  =      0 
    WXRCRG2  =      0 
    PXRCRG2  =      0 
 

    *** UCB's BSIM4.4.0 new diode model is activated. ***
    *** UCB's Diode Model Parameters ***

    JTSS         =      0 
    JTSSWS       =      0 
    JTSSWGS      =      0 
    JTSD         =      0 
    JTSSWD       =      0 
    JTSSWGD      =      0 
    NJTS         =     20 
    NJTSSW       =     20 
    NJTSSWG      =     20 
    XTSS         =   0.02 
    XTSSWS       =   0.02 
    XTSSWGS      =   0.02 
    XTSD         =   0.02 
    XTSSWD       =   0.02 
    XTSSWGD      =   0.02 
    TNJTS        =      0 
    TNJTSSW      =      0 
    TNJTSSWG     =      0 
    VFBSDOFF     =      0 
    LVFBSDOFF    =      0 
    WVFBSDOFF    =      0 
    PVFBSDOFF    =      0 
    LINTNOI      =      0 
    VTSS         =     10 
    VTSD         =     10 
    VTSSWS       =     10 
    VTSSWD       =     10 
    VTSSWGS      =     10 
    VTSSWGD      =     10 
    TTDIOMOD     =      1 
 


 **warning** dc voltage reset to initial transient source value
             in source        0:va_i                new dc=  0.0000D+00


 **warning** dc voltage reset to initial transient source value
             in source        0:vabar_i             new dc=  0.1200D+01

 Warning: Source diffusion conductance reset to 1.0e3 mho.

 Warning: Drain diffusion conductance reset to 1.0e3 mho.

 Warning: Source diffusion conductance reset to 1.0e3 mho.

 Warning: Drain diffusion conductance reset to 1.0e3 mho.

 Warning: Source diffusion conductance reset to 1.0e3 mho.

 Warning: Drain diffusion conductance reset to 1.0e3 mho.

 Warning: Source diffusion conductance reset to 1.0e3 mho.

 Warning: Drain diffusion conductance reset to 1.0e3 mho.

 Warning: Source diffusion conductance reset to 1.0e3 mho.

 Warning: Drain diffusion conductance reset to 1.0e3 mho.

 Warning: Source diffusion conductance reset to 1.0e3 mho.

 Warning: Drain diffusion conductance reset to 1.0e3 mho.

  Opening plot unit= 15
 file=and2.pa0                                                                 

1****** HSPICE  --  A-2007.09  32-BIT    (Aug 28 2007) 14:54:14 02/23/2013 linux
 ******  
 *include model and subckts                                                     
  ******  operating point information      tnom=  25.000 temp=  25.000          
 ******  
 ***** operating point status is voltage   simulation time is     0.     
    node    =voltage      node    =voltage      node    =voltage

 +0:a_i     =   0.      0:abar_i  =   1.2000  0:out     =   1.3163n
 +0:vdd     =   1.2000  0:vss     =   0.      1:hnet14  =   3.4934n
 +1:net11   =   1.2000 

 ******  
 *include model and subckts                                                     
  ******  transient analysis               tnom=  25.000 temp=  25.000          
 ******  
   avg_pow=  6.1745E-09  from=  1.0000E-06     to=  1.0000E-05

          ***** job concluded
1****** HSPICE  --  A-2007.09  32-BIT    (Aug 28 2007) 14:54:14 02/23/2013 linux
 ******  
 *include model and subckts                                                     
  ******  job statistics summary           tnom=  25.000 temp=  25.000          
 ******  

           total memory used      12162 kbytes

  # nodes =      20 # elements=      10
  # diodes=       0 # bjts    =       0 # jfets   =       0 # mosfets =       6
  # va device =       0

    analysis           time    # points   tot. iter  conv.iter

    op point           0.00           1           9
    transient          0.22         101        1618         612 rev=       130
    readin             0.89
    errchk             0.06
    setup              0.00
    output             0.00
           total cpu time          1.17 seconds
               job started at  14:54:14 02/23/2013
               job ended   at  14:54:16 02/23/2013


 Init: hspice initialization file: /usr/cad/meta/rel/hspice/hspice.ini
 lic: Release hspice token(s) 
