$DATA1 SOURCE='HSPICE' VERSION='A-2007.09'
.TITLE '*include model and subckts'
 avg_pow          temper           alter#            
  9.132e-09         25.0000           1.0000         
